/*---------------------------------------------------------------------------*\
| =========                 |                                                 |
| \\      /  F ield         | OpenFOAM: The Open Source CFD Toolbox           |
|  \\    /   O peration     | Version:                                        |
|   \\  /    A nd           | Website:  www.openfoam.com                      |
|    \\/     M anipulation  |                                                 |
\*---------------------------------------------------------------------------*/
Build  : OPENFOAM=1912 patch=200626
Arch   : "LSB;label=32;scalar=64"
Exec   : pimpleFoam
Date   : Mar 20 2026
Time   : 15:11:33
Host   : DESKTOP-8MPCJP1
PID    : 416
I/O    : uncollated
Case   : /root/openfoam_validation/baseline
nProcs : 1
trapFpe: Floating point exception trapping enabled (FOAM_SIGFPE).
fileModificationChecking : Monitoring run-time modified files using timeStampMaster (fileModificationSkew 10)
allowSystemOperations : Allowing user-supplied system call operations

// * * * * * * * * * * * * * * * * * * * * * * * * * * * * * * * * * * * * * //
Create time

Create mesh for time = 0


PIMPLE: Operating solver in PISO mode

Reading field p

Reading field U

Reading/calculating face flux field phi

Selecting incompressible transport model Newtonian
Selecting turbulence model type RAS
Selecting RAS turbulence model kEpsilon
RAS
{
    RASModel        kEpsilon;
    turbulence      on;
    printCoeffs     on;
    Cmu             0.09;
    C1              1.44;
    C2              1.92;
    C3              0;
    sigmak          1;
    sigmaEps        1.3;
}

No MRF models present

No finite volume options present
Courant Number mean: 0 max: 0

Starting time loop

Courant Number mean: 0 max: 0
deltaT = 0.00120482
Time = 0.00120482

PIMPLE: iteration 1
smoothSolver:  Solving for Ux, Initial residual = 1, Final residual = 9.08322e-06, No Iterations 1
smoothSolver:  Solving for Uy, Initial residual = 1, Final residual = 9.08322e-06, No Iterations 1
smoothSolver:  Solving for Uz, Initial residual = 0, Final residual = 0, No Iterations 0
GAMG:  Solving for p, Initial residual = 1, Final residual = 0.00319667, No Iterations 2
time step continuity errors : sum local = 7.44886e-05, global = -1.75773e-05, cumulative = -1.75773e-05
GAMG:  Solving for p, Initial residual = 0.00397907, Final residual = 9.73704e-07, No Iterations 9
time step continuity errors : sum local = 3.08113e-08, global = -2.02481e-08, cumulative = -1.75975e-05
smoothSolver:  Solving for epsilon, Initial residual = 0.621356, Final residual = 7.58628e-07, No Iterations 1
smoothSolver:  Solving for k, Initial residual = 1, Final residual = 8.23873e-06, No Iterations 1
ExecutionTime = 0.05 s  ClockTime = 0 s

Courant Number mean: 0.00788111 max: 0.0212908
deltaT = 0.00145287
Time = 0.00265769

PIMPLE: iteration 1
smoothSolver:  Solving for Ux, Initial residual = 0.320682, Final residual = 2.62236e-07, No Iterations 2
smoothSolver:  Solving for Uy, Initial residual = 0.485323, Final residual = 4.29819e-07, No Iterations 2
smoothSolver:  Solving for Uz, Initial residual = 0.926126, Final residual = 4.98737e-07, No Iterations 2
GAMG:  Solving for p, Initial residual = 0.00180045, Final residual = 1.7152e-05, No Iterations 2
time step continuity errors : sum local = 7.38308e-07, global = 2.82389e-08, cumulative = -1.75693e-05
GAMG:  Solving for p, Initial residual = 2.10343e-05, Final residual = 8.084e-07, No Iterations 4
time step continuity errors : sum local = 3.48249e-08, global = 2.11945e-09, cumulative = -1.75672e-05
smoothSolver:  Solving for epsilon, Initial residual = 0.483282, Final residual = 3.7262e-10, No Iterations 2
smoothSolver:  Solving for k, Initial residual = 0.587029, Final residual = 4.0146e-07, No Iterations 2
ExecutionTime = 0.07 s  ClockTime = 0 s

Courant Number mean: 0.0209454 max: 0.0564595
deltaT = 0.00173826
Time = 0.00439595

PIMPLE: iteration 1
smoothSolver:  Solving for Ux, Initial residual = 0.203606, Final residual = 2.9366e-07, No Iterations 2
smoothSolver:  Solving for Uy, Initial residual = 0.33646, Final residual = 5.19124e-07, No Iterations 2
smoothSolver:  Solving for Uz, Initial residual = 0.390579, Final residual = 3.16681e-07, No Iterations 2
GAMG:  Solving for p, Initial residual = 0.0020386, Final residual = 1.10583e-05, No Iterations 3
time step continuity errors : sum local = 6.60983e-07, global = 1.55916e-07, cumulative = -1.74113e-05
GAMG:  Solving for p, Initial residual = 1.88054e-05, Final residual = 7.58652e-07, No Iterations 3
time step continuity errors : sum local = 4.53841e-08, global = -5.67864e-09, cumulative = -1.74169e-05
smoothSolver:  Solving for epsilon, Initial residual = 0.468595, Final residual = 6.7347e-09, No Iterations 2
smoothSolver:  Solving for k, Initial residual = 0.474134, Final residual = 7.46119e-07, No Iterations 2
ExecutionTime = 0.08 s  ClockTime = 0 s

Courant Number mean: 0.0414087 max: 0.111318
deltaT = 0.00207835
Time = 0.00647429

PIMPLE: iteration 1
smoothSolver:  Solving for Ux, Initial residual = 0.156157, Final residual = 3.73053e-07, No Iterations 2
smoothSolver:  Solving for Uy, Initial residual = 0.266972, Final residual = 5.86452e-07, No Iterations 2
smoothSolver:  Solving for Uz, Initial residual = 0.317361, Final residual = 4.95461e-07, No Iterations 2
GAMG:  Solving for p, Initial residual = 0.0025025, Final residual = 1.80588e-05, No Iterations 3
time step continuity errors : sum local = 1.50179e-06, global = 3.05869e-07, cumulative = -1.71111e-05
GAMG:  Solving for p, Initial residual = 3.67421e-05, Final residual = 6.67769e-07, No Iterations 4
time step continuity errors : sum local = 5.55879e-08, global = 2.24489e-08, cumulative = -1.70886e-05
smoothSolver:  Solving for epsilon, Initial residual = 0.537322, Final residual = 9.53595e-08, No Iterations 2
smoothSolver:  Solving for k, Initial residual = 0.434564, Final residual = 1.51389e-06, No Iterations 2
ExecutionTime = 0.09 s  ClockTime = 0 s

Courant Number mean: 0.0728333 max: 0.195054
deltaT = 0.0024612
Time = 0.0089355

PIMPLE: iteration 1
smoothSolver:  Solving for Ux, Initial residual = 0.129777, Final residual = 4.42214e-07, No Iterations 2
smoothSolver:  Solving for Uy, Initial residual = 0.225248, Final residual = 1.46414e-06, No Iterations 2
smoothSolver:  Solving for Uz, Initial residual = 0.246751, Final residual = 1.07694e-06, No Iterations 2
GAMG:  Solving for p, Initial residual = 0.00304074, Final residual = 1.25331e-05, No Iterations 4
time step continuity errors : sum local = 1.39998e-06, global = -2.49657e-07, cumulative = -1.73383e-05
GAMG:  Solving for p, Initial residual = 8.17607e-05, Final residual = 7.9359e-07, No Iterations 4
time step continuity errors : sum local = 8.87607e-08, global = 3.3127e-08, cumulative = -1.73051e-05
smoothSolver:  Solving for epsilon, Initial residual = 0.749738, Final residual = 1.1102e-06, No Iterations 2
smoothSolver:  Solving for k, Initial residual = 0.42211, Final residual = 3.66643e-06, No Iterations 2
ExecutionTime = 0.1 s  ClockTime = 0 s

Courant Number mean: 0.118864 max: 0.316646
deltaT = 0.00293756
Time = 0.0118731

PIMPLE: iteration 1
smoothSolver:  Solving for Ux, Initial residual = 0.114549, Final residual = 1.14364e-06, No Iterations 2
smoothSolver:  Solving for Uy, Initial residual = 0.199495, Final residual = 7.64017e-06, No Iterations 2
smoothSolver:  Solving for Uz, Initial residual = 0.282423, Final residual = 4.80414e-06, No Iterations 2
GAMG:  Solving for p, Initial residual = 0.00372374, Final residual = 2.15709e-05, No Iterations 4
time step continuity errors : sum local = 3.23441e-06, global = -5.86485e-07, cumulative = -1.78916e-05
GAMG:  Solving for p, Initial residual = 0.000174286, Final residual = 7.10107e-07, No Iterations 5
time step continuity errors : sum local = 1.06655e-07, global = -1.65339e-08, cumulative = -1.79082e-05
smoothSolver:  Solving for epsilon, Initial residual = 0.464348, Final residual = 4.76477e-06, No Iterations 2
smoothSolver:  Solving for k, Initial residual = 0.424713, Final residual = 1.08031e-07, No Iterations 3
ExecutionTime = 0.11 s  ClockTime = 0 s

Courant Number mean: 0.188151 max: 0.497839
deltaT = 0.00352508
Time = 0.0153981

PIMPLE: iteration 1
smoothSolver:  Solving for Ux, Initial residual = 0.105011, Final residual = 4.87747e-06, No Iterations 2
smoothSolver:  Solving for Uy, Initial residual = 0.18198, Final residual = 8.94737e-07, No Iterations 3
smoothSolver:  Solving for Uz, Initial residual = 0.301481, Final residual = 4.27202e-07, No Iterations 3
GAMG:  Solving for p, Initial residual = 0.00465726, Final residual = 3.68578e-05, No Iterations 4
time step continuity errors : sum local = 7.56673e-06, global = -1.38373e-06, cumulative = -1.92919e-05
GAMG:  Solving for p, Initial residual = 0.00038155, Final residual = 7.51924e-07, No Iterations 6
time step continuity errors : sum local = 1.54743e-07, global = 3.44944e-08, cumulative = -1.92574e-05
smoothSolver:  Solving for epsilon, Initial residual = 0.246711, Final residual = 2.39725e-07, No Iterations 3
smoothSolver:  Solving for k, Initial residual = 0.434719, Final residual = 1.3512e-06, No Iterations 3
ExecutionTime = 0.13 s  ClockTime = 0 s

Courant Number mean: 0.292068 max: 0.767102
deltaT = 0.00423009
Time = 0.0196282

PIMPLE: iteration 1
smoothSolver:  Solving for Ux, Initial residual = 0.098584, Final residual = 1.02968e-06, No Iterations 3
smoothSolver:  Solving for Uy, Initial residual = 0.168478, Final residual = 5.46413e-07, No Iterations 4
smoothSolver:  Solving for Uz, Initial residual = 0.29485, Final residual = 4.92059e-06, No Iterations 3
GAMG:  Solving for p, Initial residual = 0.00604125, Final residual = 3.39067e-05, No Iterations 5
time step continuity errors : sum local = 9.15987e-06, global = 4.14159e-06, cumulative = -1.51158e-05
GAMG:  Solving for p, Initial residual = 0.000821643, Final residual = 8.45697e-07, No Iterations 8
time step continuity errors : sum local = 2.29243e-07, global = 4.26686e-08, cumulative = -1.50731e-05
smoothSolver:  Solving for epsilon, Initial residual = 0.161037, Final residual = 2.15388e-06, No Iterations 3
smoothSolver:  Solving for k, Initial residual = 0.446834, Final residual = 9.29431e-07, No Iterations 4
ExecutionTime = 0.15 s  ClockTime = 0 s

Courant Number mean: 0.445288 max: 1.16178
deltaT = 0.00502324
Time = 0.0246515

PIMPLE: iteration 1
smoothSolver:  Solving for Ux, Initial residual = 0.093355, Final residual = 2.44418e-06, No Iterations 4
smoothSolver:  Solving for Uy, Initial residual = 0.155852, Final residual = 1.94353e-06, No Iterations 5
smoothSolver:  Solving for Uz, Initial residual = 0.274455, Final residual = 6.80919e-06, No Iterations 4
GAMG:  Solving for p, Initial residual = 0.00800095, Final residual = 6.3391e-05, No Iterations 5
time step continuity errors : sum local = 2.10489e-05, global = 9.40184e-06, cumulative = -5.6713e-06
GAMG:  Solving for p, Initial residual = 0.00178863, Final residual = 9.53488e-07, No Iterations 9
time step continuity errors : sum local = 3.18152e-07, global = -1.85969e-07, cumulative = -5.85727e-06
smoothSolver:  Solving for epsilon, Initial residual = 0.118156, Final residual = 1.49534e-06, No Iterations 4
smoothSolver:  Solving for k, Initial residual = 0.452635, Final residual = 3.49618e-06, No Iterations 5
ExecutionTime = 0.17 s  ClockTime = 0 s

Courant Number mean: 0.661179 max: 1.71719
deltaT = 0.00579604
Time = 0.0304475

PIMPLE: iteration 1
smoothSolver:  Solving for Ux, Initial residual = 0.087053, Final residual = 3.26674e-06, No Iterations 6
smoothSolver:  Solving for Uy, Initial residual = 0.139721, Final residual = 3.77474e-06, No Iterations 7
smoothSolver:  Solving for Uz, Initial residual = 0.247964, Final residual = 4.21753e-06, No Iterations 7
GAMG:  Solving for p, Initial residual = 0.0115278, Final residual = 7.26525e-05, No Iterations 6
time step continuity errors : sum local = 2.84628e-05, global = -5.48747e-06, cumulative = -1.13447e-05
GAMG:  Solving for p, Initial residual = 0.00356033, Final residual = 7.28729e-07, No Iterations 11
time step continuity errors : sum local = 2.87263e-07, global = -1.66221e-07, cumulative = -1.1511e-05
smoothSolver:  Solving for epsilon, Initial residual = 0.0920186, Final residual = 5.30892e-06, No Iterations 5
smoothSolver:  Solving for k, Initial residual = 0.431049, Final residual = 3.96701e-06, No Iterations 7
ExecutionTime = 0.19 s  ClockTime = 0 s

Courant Number mean: 0.933577 max: 2.4141
deltaT = 0.00695525
Time = 0.0374028

PIMPLE: iteration 1
smoothSolver:  Solving for Ux, Initial residual = 0.0803003, Final residual = 3.60416e-06, No Iterations 7
smoothSolver:  Solving for Uy, Initial residual = 0.118597, Final residual = 4.62797e-06, No Iterations 7
smoothSolver:  Solving for Uz, Initial residual = 0.228951, Final residual = 6.61362e-06, No Iterations 7
GAMG:  Solving for p, Initial residual = 0.0239994, Final residual = 0.000144611, No Iterations 6
time step continuity errors : sum local = 7.32255e-05, global = -3.3956e-05, cumulative = -4.5467e-05
GAMG:  Solving for p, Initial residual = 0.00911076, Final residual = 7.35033e-07, No Iterations 11
time step continuity errors : sum local = 3.71695e-07, global = -9.70442e-08, cumulative = -4.5564e-05
smoothSolver:  Solving for epsilon, Initial residual = 0.0699975, Final residual = 7.03369e-06, No Iterations 5
smoothSolver:  Solving for k, Initial residual = 0.383204, Final residual = 4.47765e-06, No Iterations 7
ExecutionTime = 0.21 s  ClockTime = 0 s

Courant Number mean: 1.32941 max: 3.44217
deltaT = 0.00782466
Time = 0.0452274

PIMPLE: iteration 1
smoothSolver:  Solving for Ux, Initial residual = 0.0655412, Final residual = 9.06647e-06, No Iterations 7
smoothSolver:  Solving for Uy, Initial residual = 0.0971103, Final residual = 5.64396e-06, No Iterations 8
smoothSolver:  Solving for Uz, Initial residual = 0.243127, Final residual = 6.27557e-06, No Iterations 7
GAMG:  Solving for p, Initial residual = 0.0372972, Final residual = 0.000280501, No Iterations 5
time step continuity errors : sum local = 0.000149904, global = 3.50652e-05, cumulative = -1.04988e-05
GAMG:  Solving for p, Initial residual = 0.014678, Final residual = 6.66658e-07, No Iterations 11
time step continuity errors : sum local = 3.59831e-07, global = -1.00485e-07, cumulative = -1.05993e-05
smoothSolver:  Solving for epsilon, Initial residual = 0.0550121, Final residual = 9.09925e-06, No Iterations 5
smoothSolver:  Solving for k, Initial residual = 0.30019, Final residual = 4.14586e-06, No Iterations 8
ExecutionTime = 0.23 s  ClockTime = 0 s

Courant Number mean: 1.72342 max: 4.47295
deltaT = 0.00912876
Time = 0.0543562

PIMPLE: iteration 1
smoothSolver:  Solving for Ux, Initial residual = 0.057829, Final residual = 3.49479e-06, No Iterations 8
smoothSolver:  Solving for Uy, Initial residual = 0.083017, Final residual = 6.11372e-06, No Iterations 8
smoothSolver:  Solving for Uz, Initial residual = 0.252477, Final residual = 6.54663e-06, No Iterations 7
GAMG:  Solving for p, Initial residual = 0.0471545, Final residual = 0.000307804, No Iterations 5
time step continuity errors : sum local = 0.000204122, global = 0.000116076, cumulative = 0.000105477
GAMG:  Solving for p, Initial residual = 0.0178101, Final residual = 6.11476e-07, No Iterations 13
time step continuity errors : sum local = 4.19846e-07, global = -2.29222e-07, cumulative = 0.000105248
smoothSolver:  Solving for epsilon, Initial residual = 0.0386071, Final residual = 2.54787e-06, No Iterations 6
smoothSolver:  Solving for k, Initial residual = 0.216909, Final residual = 3.6947e-06, No Iterations 8
ExecutionTime = 0.25 s  ClockTime = 0 s

Courant Number mean: 2.28926 max: 5.94963
deltaT = 0.0076073
Time = 0.0619635

PIMPLE: iteration 1
smoothSolver:  Solving for Ux, Initial residual = 0.0472125, Final residual = 6.41881e-06, No Iterations 7
smoothSolver:  Solving for Uy, Initial residual = 0.0594178, Final residual = 8.89018e-06, No Iterations 7
smoothSolver:  Solving for Uz, Initial residual = 0.234073, Final residual = 6.54314e-06, No Iterations 7
GAMG:  Solving for p, Initial residual = 0.0542159, Final residual = 0.000529066, No Iterations 3
time step continuity errors : sum local = 0.000257186, global = 2.44451e-05, cumulative = 0.000129693
GAMG:  Solving for p, Initial residual = 0.0201375, Final residual = 7.92026e-07, No Iterations 11
time step continuity errors : sum local = 3.87304e-07, global = 6.0485e-08, cumulative = 0.000129754
smoothSolver:  Solving for epsilon, Initial residual = 0.0257478, Final residual = 5.73413e-06, No Iterations 5
smoothSolver:  Solving for k, Initial residual = 0.138553, Final residual = 5.24021e-06, No Iterations 7
ExecutionTime = 0.26 s  ClockTime = 0 s

Courant Number mean: 2.08991 max: 5.44585
deltaT = 0.0076073
Time = 0.0695708

PIMPLE: iteration 1
smoothSolver:  Solving for Ux, Initial residual = 0.0424682, Final residual = 6.90903e-06, No Iterations 7
smoothSolver:  Solving for Uy, Initial residual = 0.0512627, Final residual = 8.6148e-06, No Iterations 7
smoothSolver:  Solving for Uz, Initial residual = 0.267813, Final residual = 7.29009e-06, No Iterations 7
GAMG:  Solving for p, Initial residual = 0.0493645, Final residual = 0.000472253, No Iterations 4
time step continuity errors : sum local = 0.000220207, global = -4.58667e-05, cumulative = 8.38868e-05
GAMG:  Solving for p, Initial residual = 0.0182601, Final residual = 6.08182e-07, No Iterations 13
time step continuity errors : sum local = 2.88973e-07, global = -1.71107e-07, cumulative = 8.37157e-05
smoothSolver:  Solving for epsilon, Initial residual = 0.0220569, Final residual = 5.10003e-06, No Iterations 5
smoothSolver:  Solving for k, Initial residual = 0.100579, Final residual = 6.47602e-06, No Iterations 7
ExecutionTime = 0.28 s  ClockTime = 0 s

Courant Number mean: 2.26776 max: 5.93169
deltaT = 0.00608584
Time = 0.0756566

PIMPLE: iteration 1
smoothSolver:  Solving for Ux, Initial residual = 0.0342625, Final residual = 4.34408e-06, No Iterations 7
smoothSolver:  Solving for Uy, Initial residual = 0.0376609, Final residual = 5.02358e-06, No Iterations 7
smoothSolver:  Solving for Uz, Initial residual = 0.199433, Final residual = 8.24156e-06, No Iterations 7
GAMG:  Solving for p, Initial residual = 0.0495256, Final residual = 0.000397164, No Iterations 3
time step continuity errors : sum local = 0.000133841, global = 1.65667e-05, cumulative = 0.000100282
GAMG:  Solving for p, Initial residual = 0.0174956, Final residual = 7.49002e-07, No Iterations 11
time step continuity errors : sum local = 2.54533e-07, global = 4.46116e-08, cumulative = 0.000100327
smoothSolver:  Solving for epsilon, Initial residual = 0.0132806, Final residual = 4.91575e-06, No Iterations 5
smoothSolver:  Solving for k, Initial residual = 0.0686558, Final residual = 3.72187e-06, No Iterations 7
ExecutionTime = 0.3 s  ClockTime = 0 s

Courant Number mean: 1.92564 max: 5.03216
deltaT = 0.00608584
Time = 0.0817425

PIMPLE: iteration 1
smoothSolver:  Solving for Ux, Initial residual = 0.0298281, Final residual = 5.20563e-06, No Iterations 7
smoothSolver:  Solving for Uy, Initial residual = 0.0327902, Final residual = 5.5792e-06, No Iterations 7
smoothSolver:  Solving for Uz, Initial residual = 0.214551, Final residual = 9.12216e-06, No Iterations 7
GAMG:  Solving for p, Initial residual = 0.0445886, Final residual = 0.000310955, No Iterations 4
time step continuity errors : sum local = 0.000101269, global = -1.74647e-05, cumulative = 8.28623e-05
GAMG:  Solving for p, Initial residual = 0.0147522, Final residual = 4.3736e-07, No Iterations 13
time step continuity errors : sum local = 1.44358e-07, global = -8.39047e-08, cumulative = 8.27784e-05
smoothSolver:  Solving for epsilon, Initial residual = 0.0156725, Final residual = 6.68318e-06, No Iterations 5
smoothSolver:  Solving for k, Initial residual = 0.0536986, Final residual = 6.75939e-06, No Iterations 7
ExecutionTime = 0.31 s  ClockTime = 0 s

Courant Number mean: 2.03174 max: 5.35558
deltaT = 0.00608584
Time = 0.0878283

PIMPLE: iteration 1
smoothSolver:  Solving for Ux, Initial residual = 0.027842, Final residual = 4.45762e-06, No Iterations 7
smoothSolver:  Solving for Uy, Initial residual = 0.0281606, Final residual = 5.11314e-06, No Iterations 7
smoothSolver:  Solving for Uz, Initial residual = 0.192069, Final residual = 8.3128e-06, No Iterations 7
GAMG:  Solving for p, Initial residual = 0.0442659, Final residual = 0.000194735, No Iterations 4
time step continuity errors : sum local = 6.35092e-05, global = -2.23649e-05, cumulative = 6.04135e-05
GAMG:  Solving for p, Initial residual = 0.0158616, Final residual = 5.72631e-07, No Iterations 11
time step continuity errors : sum local = 1.87971e-07, global = -1.10922e-07, cumulative = 6.03026e-05
smoothSolver:  Solving for epsilon, Initial residual = 0.00927055, Final residual = 7.04709e-06, No Iterations 5
smoothSolver:  Solving for k, Initial residual = 0.0458688, Final residual = 5.33217e-06, No Iterations 7
ExecutionTime = 0.33 s  ClockTime = 0 s

Courant Number mean: 2.12866 max: 5.60326
deltaT = 0.00608584
Time = 0.0939142

PIMPLE: iteration 1
smoothSolver:  Solving for Ux, Initial residual = 0.0250013, Final residual = 5.04636e-06, No Iterations 7
smoothSolver:  Solving for Uy, Initial residual = 0.0244474, Final residual = 5.09794e-06, No Iterations 7
smoothSolver:  Solving for Uz, Initial residual = 0.175829, Final residual = 4.03464e-06, No Iterations 8
GAMG:  Solving for p, Initial residual = 0.0451353, Final residual = 0.000291715, No Iterations 4
time step continuity errors : sum local = 9.30716e-05, global = -1.76063e-05, cumulative = 4.26962e-05
GAMG:  Solving for p, Initial residual = 0.0151334, Final residual = 8.10634e-07, No Iterations 12
time step continuity errors : sum local = 2.61161e-07, global = 5.03526e-08, cumulative = 4.27466e-05
smoothSolver:  Solving for epsilon, Initial residual = 0.0126688, Final residual = 8.54865e-06, No Iterations 5
smoothSolver:  Solving for k, Initial residual = 0.0411855, Final residual = 5.92248e-06, No Iterations 7
ExecutionTime = 0.35 s  ClockTime = 0 s

Courant Number mean: 2.21798 max: 5.88827
deltaT = 0.00608584
Time = 0.1

PIMPLE: iteration 1
smoothSolver:  Solving for Ux, Initial residual = 0.0233286, Final residual = 4.60475e-06, No Iterations 7
smoothSolver:  Solving for Uy, Initial residual = 0.0214523, Final residual = 5.17964e-06, No Iterations 7
smoothSolver:  Solving for Uz, Initial residual = 0.174713, Final residual = 3.83551e-06, No Iterations 8
GAMG:  Solving for p, Initial residual = 0.0435406, Final residual = 0.000209024, No Iterations 4
time step continuity errors : sum local = 6.5971e-05, global = -1.24275e-05, cumulative = 3.03191e-05
GAMG:  Solving for p, Initial residual = 0.0144766, Final residual = 6.69157e-07, No Iterations 11
time step continuity errors : sum local = 2.12407e-07, global = -1.21965e-07, cumulative = 3.01971e-05
smoothSolver:  Solving for epsilon, Initial residual = 0.00771807, Final residual = 8.88983e-06, No Iterations 5
smoothSolver:  Solving for k, Initial residual = 0.039054, Final residual = 5.65359e-06, No Iterations 7
ExecutionTime = 0.38 s  ClockTime = 0 s

Courant Number mean: 2.30036 max: 6.11388
deltaT = 0.005
Time = 0.105

PIMPLE: iteration 1
smoothSolver:  Solving for Ux, Initial residual = 0.0201081, Final residual = 3.71967e-06, No Iterations 7
smoothSolver:  Solving for Uy, Initial residual = 0.0181998, Final residual = 3.509e-06, No Iterations 7
smoothSolver:  Solving for Uz, Initial residual = 0.160495, Final residual = 9.22225e-06, No Iterations 7
GAMG:  Solving for p, Initial residual = 0.0439097, Final residual = 0.000394394, No Iterations 3
time step continuity errors : sum local = 9.37372e-05, global = 1.73021e-05, cumulative = 4.74992e-05
GAMG:  Solving for p, Initial residual = 0.0138281, Final residual = 9.25026e-07, No Iterations 10
time step continuity errors : sum local = 2.2039e-07, global = -1.07869e-07, cumulative = 4.73913e-05
smoothSolver:  Solving for epsilon, Initial residual = 0.010292, Final residual = 2.97175e-06, No Iterations 6
smoothSolver:  Solving for k, Initial residual = 0.034648, Final residual = 4.4196e-06, No Iterations 7
ExecutionTime = 0.4 s  ClockTime = 0 s

Courant Number mean: 1.94796 max: 5.20815
deltaT = 0.00475
Time = 0.10975

PIMPLE: iteration 1
smoothSolver:  Solving for Ux, Initial residual = 0.0183127, Final residual = 9.61256e-06, No Iterations 6
smoothSolver:  Solving for Uy, Initial residual = 0.0161506, Final residual = 9.50917e-06, No Iterations 6
smoothSolver:  Solving for Uz, Initial residual = 0.144134, Final residual = 3.28499e-06, No Iterations 8
GAMG:  Solving for p, Initial residual = 0.0360687, Final residual = 0.000187575, No Iterations 4
time step continuity errors : sum local = 4.16603e-05, global = -5.58496e-06, cumulative = 4.18063e-05
GAMG:  Solving for p, Initial residual = 0.0117265, Final residual = 6.26334e-07, No Iterations 11
time step continuity errors : sum local = 1.3982e-07, global = -8.74732e-08, cumulative = 4.17189e-05
smoothSolver:  Solving for epsilon, Initial residual = 0.00811315, Final residual = 3.06995e-06, No Iterations 6
smoothSolver:  Solving for k, Initial residual = 0.0330244, Final residual = 4.36067e-06, No Iterations 7
ExecutionTime = 0.42 s  ClockTime = 0 s

Courant Number mean: 1.90145 max: 5.08317
deltaT = 0.00475
Time = 0.1145

PIMPLE: iteration 1
smoothSolver:  Solving for Ux, Initial residual = 0.0169194, Final residual = 3.39031e-06, No Iterations 7
smoothSolver:  Solving for Uy, Initial residual = 0.0142437, Final residual = 3.18061e-06, No Iterations 7
smoothSolver:  Solving for Uz, Initial residual = 0.127951, Final residual = 3.58823e-06, No Iterations 8
GAMG:  Solving for p, Initial residual = 0.036319, Final residual = 0.00016299, No Iterations 4
time step continuity errors : sum local = 3.54455e-05, global = -9.53569e-06, cumulative = 3.21832e-05
GAMG:  Solving for p, Initial residual = 0.0117431, Final residual = 7.93911e-07, No Iterations 10
time step continuity errors : sum local = 1.72938e-07, global = 2.68028e-08, cumulative = 3.221e-05
smoothSolver:  Solving for epsilon, Initial residual = 0.00939215, Final residual = 3.78496e-06, No Iterations 6
smoothSolver:  Solving for k, Initial residual = 0.031878, Final residual = 4.61688e-06, No Iterations 7
ExecutionTime = 0.44 s  ClockTime = 0 s

Courant Number mean: 1.9477 max: 5.24124
deltaT = 0.0045
Time = 0.119

PIMPLE: iteration 1
smoothSolver:  Solving for Ux, Initial residual = 0.0155361, Final residual = 8.60668e-06, No Iterations 6
smoothSolver:  Solving for Uy, Initial residual = 0.0130576, Final residual = 9.04589e-06, No Iterations 6
smoothSolver:  Solving for Uz, Initial residual = 0.119486, Final residual = 8.90666e-06, No Iterations 7
GAMG:  Solving for p, Initial residual = 0.0329091, Final residual = 0.000156706, No Iterations 4
time step continuity errors : sum local = 3.25227e-05, global = -4.59166e-06, cumulative = 2.76183e-05
GAMG:  Solving for p, Initial residual = 0.0104725, Final residual = 6.11858e-07, No Iterations 11
time step continuity errors : sum local = 1.27425e-07, global = -7.52461e-08, cumulative = 2.75431e-05
smoothSolver:  Solving for epsilon, Initial residual = 0.00948545, Final residual = 3.68281e-06, No Iterations 6
smoothSolver:  Solving for k, Initial residual = 0.0308112, Final residual = 4.283e-06, No Iterations 7
ExecutionTime = 0.45 s  ClockTime = 0 s

Courant Number mean: 1.88529 max: 5.07278
deltaT = 0.0045
Time = 0.1235

PIMPLE: iteration 1
smoothSolver:  Solving for Ux, Initial residual = 0.0150798, Final residual = 8.31167e-06, No Iterations 6
smoothSolver:  Solving for Uy, Initial residual = 0.0125948, Final residual = 8.8923e-06, No Iterations 6
smoothSolver:  Solving for Uz, Initial residual = 0.118152, Final residual = 9.00025e-06, No Iterations 7
GAMG:  Solving for p, Initial residual = 0.0336113, Final residual = 0.000239935, No Iterations 4
time step continuity errors : sum local = 4.67512e-05, global = -7.57373e-06, cumulative = 1.99694e-05
GAMG:  Solving for p, Initial residual = 0.0101468, Final residual = 9.31108e-07, No Iterations 11
time step continuity errors : sum local = 1.82419e-07, global = -7.42601e-08, cumulative = 1.98951e-05
smoothSolver:  Solving for epsilon, Initial residual = 0.00931506, Final residual = 4.4501e-06, No Iterations 6
smoothSolver:  Solving for k, Initial residual = 0.0307168, Final residual = 4.53441e-06, No Iterations 7
ExecutionTime = 0.46 s  ClockTime = 0 s

Courant Number mean: 1.92391 max: 5.21634
deltaT = 0.00425
Time = 0.12775

PIMPLE: iteration 1
smoothSolver:  Solving for Ux, Initial residual = 0.0135358, Final residual = 8.01561e-06, No Iterations 6
smoothSolver:  Solving for Uy, Initial residual = 0.011485, Final residual = 8.13197e-06, No Iterations 6
smoothSolver:  Solving for Uz, Initial residual = 0.105446, Final residual = 9.2692e-06, No Iterations 7
GAMG:  Solving for p, Initial residual = 0.0305495, Final residual = 0.000173536, No Iterations 3
time step continuity errors : sum local = 3.2141e-05, global = 1.84309e-06, cumulative = 2.17382e-05
GAMG:  Solving for p, Initial residual = 0.00945445, Final residual = 6.04062e-07, No Iterations 10
time step continuity errors : sum local = 1.12247e-07, global = -6.42411e-08, cumulative = 2.16739e-05
smoothSolver:  Solving for epsilon, Initial residual = 0.0103597, Final residual = 4.413e-06, No Iterations 6
smoothSolver:  Solving for k, Initial residual = 0.030081, Final residual = 4.39428e-06, No Iterations 7
ExecutionTime = 0.48 s  ClockTime = 0 s

Courant Number mean: 1.84996 max: 5.0093
deltaT = 0.00425
Time = 0.132

PIMPLE: iteration 1
smoothSolver:  Solving for Ux, Initial residual = 0.0132633, Final residual = 7.53696e-06, No Iterations 6
smoothSolver:  Solving for Uy, Initial residual = 0.0112576, Final residual = 7.97739e-06, No Iterations 6
smoothSolver:  Solving for Uz, Initial residual = 0.0970994, Final residual = 9.36932e-06, No Iterations 7
GAMG:  Solving for p, Initial residual = 0.0318306, Final residual = 0.000179336, No Iterations 4
time step continuity errors : sum local = 3.36292e-05, global = -4.49884e-06, cumulative = 1.71751e-05
GAMG:  Solving for p, Initial residual = 0.00909906, Final residual = 9.18187e-07, No Iterations 11
time step continuity errors : sum local = 1.72661e-07, global = -7.06303e-08, cumulative = 1.71045e-05
smoothSolver:  Solving for epsilon, Initial residual = 0.0107293, Final residual = 5.08794e-06, No Iterations 6
smoothSolver:  Solving for k, Initial residual = 0.0298988, Final residual = 4.57214e-06, No Iterations 7
ExecutionTime = 0.49 s  ClockTime = 1 s

Courant Number mean: 1.88106 max: 5.13528
deltaT = 0.00425
Time = 0.13625

PIMPLE: iteration 1
smoothSolver:  Solving for Ux, Initial residual = 0.0127139, Final residual = 7.80506e-06, No Iterations 6
smoothSolver:  Solving for Uy, Initial residual = 0.0110833, Final residual = 7.58798e-06, No Iterations 6
smoothSolver:  Solving for Uz, Initial residual = 0.0927594, Final residual = 9.26186e-06, No Iterations 7
GAMG:  Solving for p, Initial residual = 0.0315879, Final residual = 0.000232581, No Iterations 3
time step continuity errors : sum local = 4.17917e-05, global = 7.7053e-06, cumulative = 2.48098e-05
GAMG:  Solving for p, Initial residual = 0.00917255, Final residual = 7.3911e-07, No Iterations 7
time step continuity errors : sum local = 1.33284e-07, global = 8.34602e-08, cumulative = 2.48932e-05
smoothSolver:  Solving for epsilon, Initial residual = 0.0117533, Final residual = 5.12975e-06, No Iterations 6
smoothSolver:  Solving for k, Initial residual = 0.0300038, Final residual = 4.59064e-06, No Iterations 7
ExecutionTime = 0.51 s  ClockTime = 1 s

Courant Number mean: 1.91121 max: 5.2002
deltaT = 0.00398437
Time = 0.140234

PIMPLE: iteration 1
smoothSolver:  Solving for Ux, Initial residual = 0.0119215, Final residual = 6.17437e-06, No Iterations 6
smoothSolver:  Solving for Uy, Initial residual = 0.0105465, Final residual = 7.40393e-06, No Iterations 6
smoothSolver:  Solving for Uz, Initial residual = 0.0874073, Final residual = 9.6785e-06, No Iterations 7
GAMG:  Solving for p, Initial residual = 0.0322591, Final residual = 0.000158382, No Iterations 4
time step continuity errors : sum local = 2.71049e-05, global = -3.14087e-06, cumulative = 2.17524e-05
GAMG:  Solving for p, Initial residual = 0.00908662, Final residual = 5.48875e-07, No Iterations 10
time step continuity errors : sum local = 9.40974e-08, global = -8.21697e-09, cumulative = 2.17441e-05
smoothSolver:  Solving for epsilon, Initial residual = 0.0115883, Final residual = 5.47052e-06, No Iterations 6
smoothSolver:  Solving for k, Initial residual = 0.029353, Final residual = 4.77118e-06, No Iterations 7
ExecutionTime = 0.53 s  ClockTime = 1 s

Courant Number mean: 1.81713 max: 4.99817
deltaT = 0.00398437
Time = 0.144219

PIMPLE: iteration 1
smoothSolver:  Solving for Ux, Initial residual = 0.0114687, Final residual = 7.29368e-06, No Iterations 6
smoothSolver:  Solving for Uy, Initial residual = 0.0104833, Final residual = 6.97104e-06, No Iterations 6
smoothSolver:  Solving for Uz, Initial residual = 0.0823738, Final residual = 3.15195e-06, No Iterations 8
GAMG:  Solving for p, Initial residual = 0.0324376, Final residual = 0.00015839, No Iterations 3
time step continuity errors : sum local = 2.65204e-05, global = 1.10091e-07, cumulative = 2.18542e-05
GAMG:  Solving for p, Initial residual = 0.00902406, Final residual = 6.77236e-07, No Iterations 8
time step continuity errors : sum local = 1.13711e-07, global = -1.26415e-08, cumulative = 2.18416e-05
smoothSolver:  Solving for epsilon, Initial residual = 0.0123001, Final residual = 5.53729e-06, No Iterations 6
smoothSolver:  Solving for k, Initial residual = 0.0296079, Final residual = 4.59918e-06, No Iterations 7
ExecutionTime = 0.55 s  ClockTime = 1 s

Courant Number mean: 1.8418 max: 5.04276
deltaT = 0.00398437
Time = 0.148203

PIMPLE: iteration 1
smoothSolver:  Solving for Ux, Initial residual = 0.0111161, Final residual = 5.8844e-06, No Iterations 6
smoothSolver:  Solving for Uy, Initial residual = 0.0103054, Final residual = 6.39191e-06, No Iterations 6
smoothSolver:  Solving for Uz, Initial residual = 0.0761125, Final residual = 8.9216e-06, No Iterations 7
GAMG:  Solving for p, Initial residual = 0.0336519, Final residual = 0.000209226, No Iterations 4
time step continuity errors : sum local = 3.54072e-05, global = -1.9219e-06, cumulative = 1.99197e-05
GAMG:  Solving for p, Initial residual = 0.00875015, Final residual = 6.21449e-07, No Iterations 12
time step continuity errors : sum local = 1.05829e-07, global = 1.32732e-08, cumulative = 1.9933e-05
smoothSolver:  Solving for epsilon, Initial residual = 0.0128569, Final residual = 6.10001e-06, No Iterations 6
smoothSolver:  Solving for k, Initial residual = 0.0294615, Final residual = 4.95615e-06, No Iterations 7
ExecutionTime = 0.56 s  ClockTime = 1 s

Courant Number mean: 1.86543 max: 5.16458
deltaT = 0.00398437
Time = 0.152188

PIMPLE: iteration 1
smoothSolver:  Solving for Ux, Initial residual = 0.0107392, Final residual = 6.98721e-06, No Iterations 6
smoothSolver:  Solving for Uy, Initial residual = 0.00977547, Final residual = 6.97473e-06, No Iterations 6
smoothSolver:  Solving for Uz, Initial residual = 0.0725076, Final residual = 3.23027e-06, No Iterations 8
GAMG:  Solving for p, Initial residual = 0.0318748, Final residual = 0.000185852, No Iterations 3
time step continuity errors : sum local = 3.14986e-05, global = -8.17492e-06, cumulative = 1.1758e-05
GAMG:  Solving for p, Initial residual = 0.00882184, Final residual = 6.53715e-07, No Iterations 8
time step continuity errors : sum local = 1.10728e-07, global = -6.66235e-08, cumulative = 1.16914e-05
smoothSolver:  Solving for epsilon, Initial residual = 0.0135527, Final residual = 6.19116e-06, No Iterations 6
smoothSolver:  Solving for k, Initial residual = 0.0298232, Final residual = 4.91254e-06, No Iterations 7
ExecutionTime = 0.57 s  ClockTime = 1 s

Courant Number mean: 1.88773 max: 5.20261
deltaT = 0.00398437
Time = 0.156172

PIMPLE: iteration 1
smoothSolver:  Solving for Ux, Initial residual = 0.0103092, Final residual = 5.73e-06, No Iterations 6
smoothSolver:  Solving for Uy, Initial residual = 0.00962897, Final residual = 6.21321e-06, No Iterations 6
smoothSolver:  Solving for Uz, Initial residual = 0.0691973, Final residual = 8.6578e-06, No Iterations 7
GAMG:  Solving for p, Initial residual = 0.0331034, Final residual = 0.00022884, No Iterations 4
time step continuity errors : sum local = 3.8247e-05, global = -3.19956e-06, cumulative = 8.49186e-06
GAMG:  Solving for p, Initial residual = 0.00882533, Final residual = 6.72008e-07, No Iterations 12
time step continuity errors : sum local = 1.12774e-07, global = 1.70944e-08, cumulative = 8.50896e-06
smoothSolver:  Solving for epsilon, Initial residual = 0.0139729, Final residual = 6.68792e-06, No Iterations 6
smoothSolver:  Solving for k, Initial residual = 0.0303579, Final residual = 4.88745e-06, No Iterations 7
ExecutionTime = 0.59 s  ClockTime = 1 s

Courant Number mean: 1.90874 max: 5.31713
deltaT = 0.00365234
Time = 0.159824

PIMPLE: iteration 1
smoothSolver:  Solving for Ux, Initial residual = 0.00965206, Final residual = 5.9717e-06, No Iterations 6
smoothSolver:  Solving for Uy, Initial residual = 0.0090974, Final residual = 5.7703e-06, No Iterations 6
smoothSolver:  Solving for Uz, Initial residual = 0.0660369, Final residual = 8.78087e-06, No Iterations 7
GAMG:  Solving for p, Initial residual = 0.0305109, Final residual = 0.00020096, No Iterations 3
time step continuity errors : sum local = 3.04077e-05, global = -6.4875e-06, cumulative = 2.02146e-06
GAMG:  Solving for p, Initial residual = 0.00812437, Final residual = 7.95108e-07, No Iterations 8
time step continuity errors : sum local = 1.20319e-07, global = 1.1526e-08, cumulative = 2.03298e-06
smoothSolver:  Solving for epsilon, Initial residual = 0.0142256, Final residual = 6.58596e-06, No Iterations 6
smoothSolver:  Solving for k, Initial residual = 0.029743, Final residual = 4.89113e-06, No Iterations 7
ExecutionTime = 0.6 s  ClockTime = 1 s

Courant Number mean: 1.768 max: 4.89673
deltaT = 0.00365234
Time = 0.163477

PIMPLE: iteration 1
smoothSolver:  Solving for Ux, Initial residual = 0.00927146, Final residual = 5.23615e-06, No Iterations 6
smoothSolver:  Solving for Uy, Initial residual = 0.00883109, Final residual = 5.38794e-06, No Iterations 6
smoothSolver:  Solving for Uz, Initial residual = 0.0621619, Final residual = 8.35672e-06, No Iterations 7
GAMG:  Solving for p, Initial residual = 0.0319046, Final residual = 0.000216685, No Iterations 4
time step continuity errors : sum local = 3.18206e-05, global = -2.22407e-06, cumulative = -1.9109e-07
GAMG:  Solving for p, Initial residual = 0.00852107, Final residual = 8.83396e-07, No Iterations 11
time step continuity errors : sum local = 1.30289e-07, global = -4.41583e-08, cumulative = -2.35248e-07
smoothSolver:  Solving for epsilon, Initial residual = 0.0151806, Final residual = 7.37453e-06, No Iterations 6
smoothSolver:  Solving for k, Initial residual = 0.030272, Final residual = 4.70237e-06, No Iterations 7
ExecutionTime = 0.62 s  ClockTime = 1 s

Courant Number mean: 1.78513 max: 4.99082
deltaT = 0.00365234
Time = 0.167129

PIMPLE: iteration 1
smoothSolver:  Solving for Ux, Initial residual = 0.00903279, Final residual = 5.8808e-06, No Iterations 6
smoothSolver:  Solving for Uy, Initial residual = 0.00855351, Final residual = 5.31705e-06, No Iterations 6
smoothSolver:  Solving for Uz, Initial residual = 0.0582728, Final residual = 7.77451e-06, No Iterations 7
GAMG:  Solving for p, Initial residual = 0.0302871, Final residual = 0.000156137, No Iterations 3
time step continuity errors : sum local = 2.38417e-05, global = -2.34386e-06, cumulative = -2.57911e-06
GAMG:  Solving for p, Initial residual = 0.0077609, Final residual = 8.59945e-07, No Iterations 7
time step continuity errors : sum local = 1.3147e-07, global = -7.81717e-08, cumulative = -2.65728e-06
smoothSolver:  Solving for epsilon, Initial residual = 0.0154936, Final residual = 7.39057e-06, No Iterations 6
smoothSolver:  Solving for k, Initial residual = 0.0302204, Final residual = 4.87418e-06, No Iterations 7
ExecutionTime = 0.64 s  ClockTime = 1 s

Courant Number mean: 1.80209 max: 5.01215
deltaT = 0.00365234
Time = 0.170781

PIMPLE: iteration 1
smoothSolver:  Solving for Ux, Initial residual = 0.0087357, Final residual = 4.89518e-06, No Iterations 6
smoothSolver:  Solving for Uy, Initial residual = 0.00835596, Final residual = 5.07624e-06, No Iterations 6
smoothSolver:  Solving for Uz, Initial residual = 0.0573225, Final residual = 7.75814e-06, No Iterations 7
GAMG:  Solving for p, Initial residual = 0.0311053, Final residual = 0.000229837, No Iterations 4
time step continuity errors : sum local = 3.37104e-05, global = -3.89352e-06, cumulative = -6.55081e-06
GAMG:  Solving for p, Initial residual = 0.00827962, Final residual = 9.84462e-07, No Iterations 11
time step continuity errors : sum local = 1.44804e-07, global = -3.73259e-08, cumulative = -6.58814e-06
smoothSolver:  Solving for epsilon, Initial residual = 0.0161572, Final residual = 7.33203e-06, No Iterations 6
smoothSolver:  Solving for k, Initial residual = 0.0308063, Final residual = 4.60938e-06, No Iterations 7
ExecutionTime = 0.65 s  ClockTime = 1 s

Courant Number mean: 1.81788 max: 5.09895
deltaT = 0.00365234
Time = 0.174434

PIMPLE: iteration 1
smoothSolver:  Solving for Ux, Initial residual = 0.00861755, Final residual = 5.69141e-06, No Iterations 6
smoothSolver:  Solving for Uy, Initial residual = 0.00821683, Final residual = 5.05855e-06, No Iterations 6
smoothSolver:  Solving for Uz, Initial residual = 0.0535603, Final residual = 7.42889e-06, No Iterations 7
GAMG:  Solving for p, Initial residual = 0.0299439, Final residual = 0.00017593, No Iterations 3
time step continuity errors : sum local = 2.68057e-05, global = -4.46964e-06, cumulative = -1.10578e-05
GAMG:  Solving for p, Initial residual = 0.0077737, Final residual = 9.6184e-07, No Iterations 7
time step continuity errors : sum local = 1.46566e-07, global = 2.13102e-09, cumulative = -1.10556e-05
smoothSolver:  Solving for epsilon, Initial residual = 0.0162367, Final residual = 7.24224e-06, No Iterations 6
smoothSolver:  Solving for k, Initial residual = 0.030201, Final residual = 5.08641e-06, No Iterations 7
ExecutionTime = 0.67 s  ClockTime = 1 s

Courant Number mean: 1.8337 max: 5.12158
deltaT = 0.00365234
Time = 0.178086

PIMPLE: iteration 1
smoothSolver:  Solving for Ux, Initial residual = 0.00820162, Final residual = 5.11852e-06, No Iterations 6
smoothSolver:  Solving for Uy, Initial residual = 0.00794733, Final residual = 4.79711e-06, No Iterations 6
smoothSolver:  Solving for Uz, Initial residual = 0.0521309, Final residual = 7.54466e-06, No Iterations 7
GAMG:  Solving for p, Initial residual = 0.0303786, Final residual = 0.000222354, No Iterations 4
time step continuity errors : sum local = 3.26776e-05, global = -3.1961e-06, cumulative = -1.42517e-05
GAMG:  Solving for p, Initial residual = 0.0079027, Final residual = 9.83923e-07, No Iterations 11
time step continuity errors : sum local = 1.45003e-07, global = -3.63268e-08, cumulative = -1.42881e-05
smoothSolver:  Solving for epsilon, Initial residual = 0.0166545, Final residual = 7.39671e-06, No Iterations 6
smoothSolver:  Solving for k, Initial residual = 0.0303816, Final residual = 4.70669e-06, No Iterations 7
ExecutionTime = 0.68 s  ClockTime = 1 s

Courant Number mean: 1.84824 max: 5.2009
deltaT = 0.00365234
Time = 0.181738

PIMPLE: iteration 1
smoothSolver:  Solving for Ux, Initial residual = 0.00814109, Final residual = 5.68289e-06, No Iterations 6
smoothSolver:  Solving for Uy, Initial residual = 0.00776403, Final residual = 4.91325e-06, No Iterations 6
smoothSolver:  Solving for Uz, Initial residual = 0.049381, Final residual = 7.64422e-06, No Iterations 7
GAMG:  Solving for p, Initial residual = 0.0292628, Final residual = 0.000200271, No Iterations 3
time step continuity errors : sum local = 3.06025e-05, global = -4.00841e-06, cumulative = -1.82965e-05
GAMG:  Solving for p, Initial residual = 0.00730779, Final residual = 8.47796e-07, No Iterations 8
time step continuity errors : sum local = 1.29535e-07, global = -5.09421e-08, cumulative = -1.83474e-05
smoothSolver:  Solving for epsilon, Initial residual = 0.0164646, Final residual = 7.52806e-06, No Iterations 6
smoothSolver:  Solving for k, Initial residual = 0.0296348, Final residual = 5.03764e-06, No Iterations 7
ExecutionTime = 0.7 s  ClockTime = 1 s

Courant Number mean: 1.86278 max: 5.22811
deltaT = 0.00365234
Time = 0.185391

PIMPLE: iteration 1
smoothSolver:  Solving for Ux, Initial residual = 0.00774496, Final residual = 5.08904e-06, No Iterations 6
smoothSolver:  Solving for Uy, Initial residual = 0.00764596, Final residual = 4.64426e-06, No Iterations 6
smoothSolver:  Solving for Uz, Initial residual = 0.0467039, Final residual = 7.47864e-06, No Iterations 7
GAMG:  Solving for p, Initial residual = 0.0302211, Final residual = 0.000189843, No Iterations 4
time step continuity errors : sum local = 2.80963e-05, global = 2.00272e-06, cumulative = -1.63447e-05
GAMG:  Solving for p, Initial residual = 0.00786538, Final residual = 6.07564e-07, No Iterations 11
time step continuity errors : sum local = 9.02673e-08, global = 1.94166e-08, cumulative = -1.63253e-05
smoothSolver:  Solving for epsilon, Initial residual = 0.0166427, Final residual = 7.62604e-06, No Iterations 6
smoothSolver:  Solving for k, Initial residual = 0.029368, Final residual = 4.74911e-06, No Iterations 7
ExecutionTime = 0.72 s  ClockTime = 1 s

Courant Number mean: 1.87599 max: 5.30523
deltaT = 0.00365234
Time = 0.189043

PIMPLE: iteration 1
smoothSolver:  Solving for Ux, Initial residual = 0.00779059, Final residual = 5.69209e-06, No Iterations 6
smoothSolver:  Solving for Uy, Initial residual = 0.00745306, Final residual = 4.85122e-06, No Iterations 6
smoothSolver:  Solving for Uz, Initial residual = 0.0466048, Final residual = 7.87238e-06, No Iterations 7
GAMG:  Solving for p, Initial residual = 0.0292112, Final residual = 0.000238657, No Iterations 3
time step continuity errors : sum local = 3.6355e-05, global = -1.87971e-06, cumulative = -1.8205e-05
GAMG:  Solving for p, Initial residual = 0.00723773, Final residual = 8.53395e-07, No Iterations 8
time step continuity errors : sum local = 1.299e-07, global = -7.0684e-08, cumulative = -1.82757e-05
smoothSolver:  Solving for epsilon, Initial residual = 0.016611, Final residual = 7.77416e-06, No Iterations 6
smoothSolver:  Solving for k, Initial residual = 0.029009, Final residual = 5.10954e-06, No Iterations 7
ExecutionTime = 0.73 s  ClockTime = 1 s

Courant Number mean: 1.88951 max: 5.34187
deltaT = 0.00365234
Time = 0.192695

PIMPLE: iteration 1
smoothSolver:  Solving for Ux, Initial residual = 0.00740149, Final residual = 5.25389e-06, No Iterations 6
smoothSolver:  Solving for Uy, Initial residual = 0.00744014, Final residual = 4.48931e-06, No Iterations 6
smoothSolver:  Solving for Uz, Initial residual = 0.0445329, Final residual = 7.79978e-06, No Iterations 7
GAMG:  Solving for p, Initial residual = 0.0304531, Final residual = 0.000209423, No Iterations 4
time step continuity errors : sum local = 3.12543e-05, global = 5.63573e-06, cumulative = -1.26399e-05
GAMG:  Solving for p, Initial residual = 0.00782483, Final residual = 7.35012e-07, No Iterations 11
time step continuity errors : sum local = 1.10209e-07, global = 2.50589e-08, cumulative = -1.26149e-05
smoothSolver:  Solving for epsilon, Initial residual = 0.0164354, Final residual = 7.55673e-06, No Iterations 6
smoothSolver:  Solving for k, Initial residual = 0.0287649, Final residual = 4.6717e-06, No Iterations 7
ExecutionTime = 0.76 s  ClockTime = 1 s

Courant Number mean: 1.90177 max: 5.40894
deltaT = 0.00365234
Time = 0.196348

PIMPLE: iteration 1
smoothSolver:  Solving for Ux, Initial residual = 0.00748073, Final residual = 5.6361e-06, No Iterations 6
smoothSolver:  Solving for Uy, Initial residual = 0.00720929, Final residual = 4.51774e-06, No Iterations 6
smoothSolver:  Solving for Uz, Initial residual = 0.0431405, Final residual = 7.49385e-06, No Iterations 7
GAMG:  Solving for p, Initial residual = 0.0291847, Final residual = 0.000285611, No Iterations 3
time step continuity errors : sum local = 4.41433e-05, global = -2.09308e-06, cumulative = -1.4708e-05
GAMG:  Solving for p, Initial residual = 0.00723854, Final residual = 6.77598e-07, No Iterations 9
time step continuity errors : sum local = 1.04566e-07, global = 1.90643e-08, cumulative = -1.46889e-05
smoothSolver:  Solving for epsilon, Initial residual = 0.0159631, Final residual = 7.16794e-06, No Iterations 6
smoothSolver:  Solving for k, Initial residual = 0.0281834, Final residual = 4.90364e-06, No Iterations 7
ExecutionTime = 0.77 s  ClockTime = 1 s

Courant Number mean: 1.9143 max: 5.44072
deltaT = 0.00365234
Time = 0.2

PIMPLE: iteration 1
smoothSolver:  Solving for Ux, Initial residual = 0.00722025, Final residual = 5.01614e-06, No Iterations 6
smoothSolver:  Solving for Uy, Initial residual = 0.00722347, Final residual = 4.07825e-06, No Iterations 6
smoothSolver:  Solving for Uz, Initial residual = 0.0423496, Final residual = 7.72216e-06, No Iterations 7
GAMG:  Solving for p, Initial residual = 0.0309447, Final residual = 0.000227215, No Iterations 4
time step continuity errors : sum local = 3.37488e-05, global = 1.04932e-06, cumulative = -1.36396e-05
GAMG:  Solving for p, Initial residual = 0.00792741, Final residual = 5.84271e-07, No Iterations 12
time step continuity errors : sum local = 8.71048e-08, global = 1.60718e-08, cumulative = -1.36235e-05
smoothSolver:  Solving for epsilon, Initial residual = 0.0152962, Final residual = 7.17505e-06, No Iterations 6
smoothSolver:  Solving for k, Initial residual = 0.0276991, Final residual = 4.64401e-06, No Iterations 7
ExecutionTime = 0.79 s  ClockTime = 1 s

Courant Number mean: 1.92555 max: 5.48364
deltaT = 0.00333333
Time = 0.203333

PIMPLE: iteration 1
smoothSolver:  Solving for Ux, Initial residual = 0.00695103, Final residual = 4.99074e-06, No Iterations 6
smoothSolver:  Solving for Uy, Initial residual = 0.00689824, Final residual = 4.12115e-06, No Iterations 6
smoothSolver:  Solving for Uz, Initial residual = 0.0425477, Final residual = 6.76536e-06, No Iterations 7
GAMG:  Solving for p, Initial residual = 0.0288877, Final residual = 0.000165098, No Iterations 4
time step continuity errors : sum local = 2.29616e-05, global = 2.42351e-06, cumulative = -1.12e-05
GAMG:  Solving for p, Initial residual = 0.00721921, Final residual = 6.17103e-07, No Iterations 11
time step continuity errors : sum local = 8.56694e-08, global = 2.94815e-08, cumulative = -1.11705e-05
smoothSolver:  Solving for epsilon, Initial residual = 0.014411, Final residual = 6.62488e-06, No Iterations 6
smoothSolver:  Solving for k, Initial residual = 0.0264906, Final residual = 4.14905e-06, No Iterations 7
ExecutionTime = 0.8 s  ClockTime = 1 s

Courant Number mean: 1.76796 max: 5.05054
deltaT = 0.00333333
Time = 0.206667

PIMPLE: iteration 1
smoothSolver:  Solving for Ux, Initial residual = 0.0067588, Final residual = 4.31606e-06, No Iterations 6
smoothSolver:  Solving for Uy, Initial residual = 0.00693835, Final residual = 3.67435e-06, No Iterations 6
smoothSolver:  Solving for Uz, Initial residual = 0.0409821, Final residual = 7.18015e-06, No Iterations 7
GAMG:  Solving for p, Initial residual = 0.0304117, Final residual = 0.000258757, No Iterations 4
time step continuity errors : sum local = 3.36463e-05, global = -2.43134e-06, cumulative = -1.36019e-05
GAMG:  Solving for p, Initial residual = 0.00748994, Final residual = 5.44324e-07, No Iterations 12
time step continuity errors : sum local = 7.10443e-08, global = 1.70805e-08, cumulative = -1.35848e-05
smoothSolver:  Solving for epsilon, Initial residual = 0.0143545, Final residual = 6.57099e-06, No Iterations 6
smoothSolver:  Solving for k, Initial residual = 0.0256001, Final residual = 4.29058e-06, No Iterations 7
ExecutionTime = 0.83 s  ClockTime = 1 s

Courant Number mean: 1.77754 max: 5.09018
deltaT = 0.00321839
Time = 0.209885

PIMPLE: iteration 1
smoothSolver:  Solving for Ux, Initial residual = 0.00657808, Final residual = 4.69185e-06, No Iterations 6
smoothSolver:  Solving for Uy, Initial residual = 0.00666749, Final residual = 3.85738e-06, No Iterations 6
smoothSolver:  Solving for Uz, Initial residual = 0.0402356, Final residual = 6.61425e-06, No Iterations 7
GAMG:  Solving for p, Initial residual = 0.0280592, Final residual = 0.000157107, No Iterations 4
time step continuity errors : sum local = 2.09101e-05, global = 1.23019e-06, cumulative = -1.23546e-05
GAMG:  Solving for p, Initial residual = 0.00682498, Final residual = 8.85936e-07, No Iterations 10
time step continuity errors : sum local = 1.1771e-07, global = -2.54762e-08, cumulative = -1.23801e-05
smoothSolver:  Solving for epsilon, Initial residual = 0.0137351, Final residual = 6.3565e-06, No Iterations 6
smoothSolver:  Solving for k, Initial residual = 0.0249812, Final residual = 4.36549e-06, No Iterations 7
ExecutionTime = 0.84 s  ClockTime = 1 s

Courant Number mean: 1.72578 max: 4.95119
deltaT = 0.00321839
Time = 0.213103

PIMPLE: iteration 1
smoothSolver:  Solving for Ux, Initial residual = 0.00640922, Final residual = 4.26966e-06, No Iterations 6
smoothSolver:  Solving for Uy, Initial residual = 0.00672478, Final residual = 3.45853e-06, No Iterations 6
smoothSolver:  Solving for Uz, Initial residual = 0.0385956, Final residual = 7.11913e-06, No Iterations 7
GAMG:  Solving for p, Initial residual = 0.0308983, Final residual = 0.000244542, No Iterations 4
time step continuity errors : sum local = 3.04199e-05, global = -1.3302e-06, cumulative = -1.37103e-05
GAMG:  Solving for p, Initial residual = 0.00734675, Final residual = 8.79949e-07, No Iterations 11
time step continuity errors : sum local = 1.09846e-07, global = -2.41454e-08, cumulative = -1.37344e-05
smoothSolver:  Solving for epsilon, Initial residual = 0.0139793, Final residual = 6.22471e-06, No Iterations 6
smoothSolver:  Solving for k, Initial residual = 0.0249078, Final residual = 4.0401e-06, No Iterations 7
ExecutionTime = 0.85 s  ClockTime = 1 s

Courant Number mean: 1.7342 max: 4.99257
deltaT = 0.00321839
Time = 0.216322

PIMPLE: iteration 1
smoothSolver:  Solving for Ux, Initial residual = 0.00637381, Final residual = 4.756e-06, No Iterations 6
smoothSolver:  Solving for Uy, Initial residual = 0.00646338, Final residual = 3.61916e-06, No Iterations 6
smoothSolver:  Solving for Uz, Initial residual = 0.0375148, Final residual = 6.52199e-06, No Iterations 7
GAMG:  Solving for p, Initial residual = 0.0283913, Final residual = 0.000139329, No Iterations 4
time step continuity errors : sum local = 1.86718e-05, global = 1.19926e-06, cumulative = -1.25352e-05
GAMG:  Solving for p, Initial residual = 0.00663475, Final residual = 7.65951e-07, No Iterations 10
time step continuity errors : sum local = 1.0238e-07, global = -1.9699e-08, cumulative = -1.25549e-05
smoothSolver:  Solving for epsilon, Initial residual = 0.0135127, Final residual = 6.15436e-06, No Iterations 6
smoothSolver:  Solving for k, Initial residual = 0.0243974, Final residual = 4.35682e-06, No Iterations 7
ExecutionTime = 0.87 s  ClockTime = 1 s

Courant Number mean: 1.74308 max: 5.02497
deltaT = 0.00321839
Time = 0.21954

PIMPLE: iteration 1
smoothSolver:  Solving for Ux, Initial residual = 0.00621606, Final residual = 4.04971e-06, No Iterations 6
smoothSolver:  Solving for Uy, Initial residual = 0.00649695, Final residual = 3.28184e-06, No Iterations 6
smoothSolver:  Solving for Uz, Initial residual = 0.0360938, Final residual = 6.51267e-06, No Iterations 7
GAMG:  Solving for p, Initial residual = 0.0299818, Final residual = 0.000256389, No Iterations 4
time step continuity errors : sum local = 3.24219e-05, global = -3.24642e-06, cumulative = -1.58013e-05
GAMG:  Solving for p, Initial residual = 0.00702088, Final residual = 8.63472e-07, No Iterations 11
time step continuity errors : sum local = 1.09501e-07, global = -2.37456e-08, cumulative = -1.5825e-05
smoothSolver:  Solving for epsilon, Initial residual = 0.0136586, Final residual = 6.07306e-06, No Iterations 6
smoothSolver:  Solving for k, Initial residual = 0.0243308, Final residual = 4.06114e-06, No Iterations 7
ExecutionTime = 0.89 s  ClockTime = 1 s

Courant Number mean: 1.7509 max: 5.06543
deltaT = 0.00321839
Time = 0.222759

PIMPLE: iteration 1
smoothSolver:  Solving for Ux, Initial residual = 0.00607826, Final residual = 4.74798e-06, No Iterations 6
smoothSolver:  Solving for Uy, Initial residual = 0.00630551, Final residual = 3.51737e-06, No Iterations 6
smoothSolver:  Solving for Uz, Initial residual = 0.0331382, Final residual = 5.8782e-06, No Iterations 7
GAMG:  Solving for p, Initial residual = 0.0281182, Final residual = 0.000171552, No Iterations 4
time step continuity errors : sum local = 2.30894e-05, global = 7.90641e-07, cumulative = -1.50344e-05
GAMG:  Solving for p, Initial residual = 0.00637779, Final residual = 8.20288e-07, No Iterations 10
time step continuity errors : sum local = 1.10131e-07, global = -2.22727e-08, cumulative = -1.50566e-05
smoothSolver:  Solving for epsilon, Initial residual = 0.0133055, Final residual = 5.92828e-06, No Iterations 6
smoothSolver:  Solving for k, Initial residual = 0.0238821, Final residual = 4.16185e-06, No Iterations 7
ExecutionTime = 0.9 s  ClockTime = 1 s

Courant Number mean: 1.75922 max: 5.09858
deltaT = 0.00321839
Time = 0.225977

PIMPLE: iteration 1
smoothSolver:  Solving for Ux, Initial residual = 0.00596554, Final residual = 4.12551e-06, No Iterations 6
smoothSolver:  Solving for Uy, Initial residual = 0.00621647, Final residual = 3.12103e-06, No Iterations 6
smoothSolver:  Solving for Uz, Initial residual = 0.0322142, Final residual = 6.10245e-06, No Iterations 7
GAMG:  Solving for p, Initial residual = 0.0297057, Final residual = 0.000265099, No Iterations 4
time step continuity errors : sum local = 3.38602e-05, global = -2.74774e-06, cumulative = -1.78044e-05
GAMG:  Solving for p, Initial residual = 0.00689007, Final residual = 7.83546e-07, No Iterations 11
time step continuity errors : sum local = 1.00435e-07, global = -2.17002e-08, cumulative = -1.78261e-05
smoothSolver:  Solving for epsilon, Initial residual = 0.0133865, Final residual = 5.92252e-06, No Iterations 6
smoothSolver:  Solving for k, Initial residual = 0.0237323, Final residual = 4.06096e-06, No Iterations 7
ExecutionTime = 0.92 s  ClockTime = 1 s

Courant Number mean: 1.7665 max: 5.13623
deltaT = 0.00308429
Time = 0.229061

PIMPLE: iteration 1
smoothSolver:  Solving for Ux, Initial residual = 0.00592828, Final residual = 4.5119e-06, No Iterations 6
smoothSolver:  Solving for Uy, Initial residual = 0.00614947, Final residual = 3.27352e-06, No Iterations 6
smoothSolver:  Solving for Uz, Initial residual = 0.0314093, Final residual = 5.48036e-06, No Iterations 7
GAMG:  Solving for p, Initial residual = 0.0285523, Final residual = 0.000174859, No Iterations 4
time step continuity errors : sum local = 2.22228e-05, global = 2.1396e-06, cumulative = -1.56865e-05
GAMG:  Solving for p, Initial residual = 0.00640461, Final residual = 7.7476e-07, No Iterations 10
time step continuity errors : sum local = 9.81648e-08, global = -2.06192e-08, cumulative = -1.57071e-05
smoothSolver:  Solving for epsilon, Initial residual = 0.0130233, Final residual = 5.7238e-06, No Iterations 6
smoothSolver:  Solving for k, Initial residual = 0.0230739, Final residual = 3.83887e-06, No Iterations 7
ExecutionTime = 0.94 s  ClockTime = 1 s

Courant Number mean: 1.70051 max: 4.94672
deltaT = 0.00308429
Time = 0.232146

PIMPLE: iteration 1
smoothSolver:  Solving for Ux, Initial residual = 0.00576422, Final residual = 3.89296e-06, No Iterations 6
smoothSolver:  Solving for Uy, Initial residual = 0.00610949, Final residual = 9.33127e-06, No Iterations 5
smoothSolver:  Solving for Uz, Initial residual = 0.0299349, Final residual = 5.45275e-06, No Iterations 7
GAMG:  Solving for p, Initial residual = 0.0304677, Final residual = 0.000252992, No Iterations 4
time step continuity errors : sum local = 3.09667e-05, global = -1.15986e-07, cumulative = -1.58231e-05
GAMG:  Solving for p, Initial residual = 0.00665846, Final residual = 7.59998e-07, No Iterations 11
time step continuity errors : sum local = 9.3299e-08, global = -1.9719e-08, cumulative = -1.58428e-05
smoothSolver:  Solving for epsilon, Initial residual = 0.0133643, Final residual = 5.59851e-06, No Iterations 6
smoothSolver:  Solving for k, Initial residual = 0.0228958, Final residual = 3.95959e-06, No Iterations 7
ExecutionTime = 0.95 s  ClockTime = 1 s

Courant Number mean: 1.70693 max: 4.9852
deltaT = 0.00308429
Time = 0.23523

PIMPLE: iteration 1
smoothSolver:  Solving for Ux, Initial residual = 0.00573657, Final residual = 4.36831e-06, No Iterations 6
smoothSolver:  Solving for Uy, Initial residual = 0.00602654, Final residual = 9.68711e-06, No Iterations 5
smoothSolver:  Solving for Uz, Initial residual = 0.0296536, Final residual = 5.2641e-06, No Iterations 7
GAMG:  Solving for p, Initial residual = 0.0288, Final residual = 0.000162939, No Iterations 4
time step continuity errors : sum local = 2.08057e-05, global = -1.63392e-06, cumulative = -1.74767e-05
GAMG:  Solving for p, Initial residual = 0.00648183, Final residual = 7.92484e-07, No Iterations 10
time step continuity errors : sum local = 1.01016e-07, global = 1.46817e-08, cumulative = -1.74621e-05
smoothSolver:  Solving for epsilon, Initial residual = 0.0130285, Final residual = 5.57154e-06, No Iterations 6
smoothSolver:  Solving for k, Initial residual = 0.0225913, Final residual = 3.61643e-06, No Iterations 7
ExecutionTime = 0.96 s  ClockTime = 1 s

Courant Number mean: 1.71392 max: 5.00891
deltaT = 0.00308429
Time = 0.238314

PIMPLE: iteration 1
smoothSolver:  Solving for Ux, Initial residual = 0.0056111, Final residual = 3.65483e-06, No Iterations 6
smoothSolver:  Solving for Uy, Initial residual = 0.00598004, Final residual = 8.82315e-06, No Iterations 5
smoothSolver:  Solving for Uz, Initial residual = 0.0289803, Final residual = 5.26623e-06, No Iterations 7
GAMG:  Solving for p, Initial residual = 0.0303153, Final residual = 0.000230982, No Iterations 4
time step continuity errors : sum local = 2.87346e-05, global = -4.07427e-07, cumulative = -1.78695e-05
GAMG:  Solving for p, Initial residual = 0.00656295, Final residual = 9.54533e-07, No Iterations 10
time step continuity errors : sum local = 1.19156e-07, global = 3.00586e-08, cumulative = -1.78394e-05
smoothSolver:  Solving for epsilon, Initial residual = 0.0134707, Final residual = 5.40927e-06, No Iterations 6
smoothSolver:  Solving for k, Initial residual = 0.0226543, Final residual = 3.7453e-06, No Iterations 7
ExecutionTime = 0.98 s  ClockTime = 1 s

Courant Number mean: 1.71984 max: 5.04587
deltaT = 0.00308429
Time = 0.241398

PIMPLE: iteration 1
smoothSolver:  Solving for Ux, Initial residual = 0.00562507, Final residual = 4.40328e-06, No Iterations 6
smoothSolver:  Solving for Uy, Initial residual = 0.00593298, Final residual = 9.2174e-06, No Iterations 5
smoothSolver:  Solving for Uz, Initial residual = 0.0289253, Final residual = 5.3471e-06, No Iterations 7
GAMG:  Solving for p, Initial residual = 0.0294857, Final residual = 0.000161384, No Iterations 4
time step continuity errors : sum local = 2.06813e-05, global = -1.62811e-06, cumulative = -1.94675e-05
GAMG:  Solving for p, Initial residual = 0.00643367, Final residual = 8.96409e-07, No Iterations 10
time step continuity errors : sum local = 1.14642e-07, global = 1.90017e-08, cumulative = -1.94485e-05
smoothSolver:  Solving for epsilon, Initial residual = 0.0129523, Final residual = 5.4195e-06, No Iterations 6
smoothSolver:  Solving for k, Initial residual = 0.0224054, Final residual = 3.70152e-06, No Iterations 7
ExecutionTime = 0.99 s  ClockTime = 1 s

Courant Number mean: 1.72654 max: 5.06947
deltaT = 0.00308429
Time = 0.244483

PIMPLE: iteration 1
smoothSolver:  Solving for Ux, Initial residual = 0.00540058, Final residual = 3.79809e-06, No Iterations 6
smoothSolver:  Solving for Uy, Initial residual = 0.00578366, Final residual = 8.46115e-06, No Iterations 5
smoothSolver:  Solving for Uz, Initial residual = 0.0287307, Final residual = 5.2705e-06, No Iterations 7
GAMG:  Solving for p, Initial residual = 0.0303324, Final residual = 0.000227852, No Iterations 4
time step continuity errors : sum local = 2.84537e-05, global = 7.53524e-07, cumulative = -1.8695e-05
GAMG:  Solving for p, Initial residual = 0.00650577, Final residual = 8.55511e-07, No Iterations 10
time step continuity errors : sum local = 1.07238e-07, global = 2.89623e-08, cumulative = -1.8666e-05
smoothSolver:  Solving for epsilon, Initial residual = 0.0131594, Final residual = 5.39937e-06, No Iterations 6
smoothSolver:  Solving for k, Initial residual = 0.0220853, Final residual = 3.70871e-06, No Iterations 7
ExecutionTime = 1.01 s  ClockTime = 1 s

Courant Number mean: 1.73206 max: 5.1173
deltaT = 0.00308429
Time = 0.247567

PIMPLE: iteration 1
smoothSolver:  Solving for Ux, Initial residual = 0.00553894, Final residual = 4.38455e-06, No Iterations 6
smoothSolver:  Solving for Uy, Initial residual = 0.00579647, Final residual = 8.84208e-06, No Iterations 5
smoothSolver:  Solving for Uz, Initial residual = 0.0280272, Final residual = 5.26525e-06, No Iterations 7
GAMG:  Solving for p, Initial residual = 0.0293065, Final residual = 0.000161092, No Iterations 4
time step continuity errors : sum local = 2.08097e-05, global = -2.84932e-06, cumulative = -2.15154e-05
GAMG:  Solving for p, Initial residual = 0.00628615, Final residual = 5.79721e-07, No Iterations 11
time step continuity errors : sum local = 7.47014e-08, global = -2.17999e-08, cumulative = -2.15372e-05
smoothSolver:  Solving for epsilon, Initial residual = 0.0126323, Final residual = 5.16316e-06, No Iterations 6
smoothSolver:  Solving for k, Initial residual = 0.0219113, Final residual = 3.85998e-06, No Iterations 7
ExecutionTime = 1.03 s  ClockTime = 1 s

Courant Number mean: 1.73854 max: 5.13121
deltaT = 0.00308429
Time = 0.250651

PIMPLE: iteration 1
smoothSolver:  Solving for Ux, Initial residual = 0.00536923, Final residual = 3.63189e-06, No Iterations 6
smoothSolver:  Solving for Uy, Initial residual = 0.00570813, Final residual = 8.23143e-06, No Iterations 5
smoothSolver:  Solving for Uz, Initial residual = 0.0275061, Final residual = 5.03098e-06, No Iterations 7
GAMG:  Solving for p, Initial residual = 0.0303075, Final residual = 0.000232832, No Iterations 4
time step continuity errors : sum local = 2.92132e-05, global = -1.19653e-06, cumulative = -2.27337e-05
GAMG:  Solving for p, Initial residual = 0.00639736, Final residual = 7.68826e-07, No Iterations 11
time step continuity errors : sum local = 9.67664e-08, global = -2.12554e-08, cumulative = -2.27549e-05
smoothSolver:  Solving for epsilon, Initial residual = 0.0126908, Final residual = 5.10448e-06, No Iterations 6
smoothSolver:  Solving for k, Initial residual = 0.021763, Final residual = 3.64381e-06, No Iterations 7
ExecutionTime = 1.04 s  ClockTime = 1 s

Courant Number mean: 1.744 max: 5.18673
deltaT = 0.00290286
Time = 0.253554

PIMPLE: iteration 1
smoothSolver:  Solving for Ux, Initial residual = 0.00530597, Final residual = 4.1207e-06, No Iterations 6
smoothSolver:  Solving for Uy, Initial residual = 0.00559724, Final residual = 8.40924e-06, No Iterations 5
smoothSolver:  Solving for Uz, Initial residual = 0.0269709, Final residual = 5.00513e-06, No Iterations 7
GAMG:  Solving for p, Initial residual = 0.0291651, Final residual = 0.000175898, No Iterations 4
time step continuity errors : sum local = 2.10187e-05, global = 4.27214e-07, cumulative = -2.23277e-05
GAMG:  Solving for p, Initial residual = 0.00622464, Final residual = 7.91519e-07, No Iterations 10
time step continuity errors : sum local = 9.44137e-08, global = -2.35557e-08, cumulative = -2.23513e-05
smoothSolver:  Solving for epsilon, Initial residual = 0.0119948, Final residual = 4.76659e-06, No Iterations 6
smoothSolver:  Solving for k, Initial residual = 0.0209007, Final residual = 3.41416e-06, No Iterations 7
ExecutionTime = 1.06 s  ClockTime = 1 s

Courant Number mean: 1.6473 max: 4.88491
deltaT = 0.00290286
Time = 0.256457

PIMPLE: iteration 1
smoothSolver:  Solving for Ux, Initial residual = 0.00511117, Final residual = 3.32304e-06, No Iterations 6
smoothSolver:  Solving for Uy, Initial residual = 0.00549684, Final residual = 7.66518e-06, No Iterations 5
smoothSolver:  Solving for Uz, Initial residual = 0.0257446, Final residual = 4.67924e-06, No Iterations 7
GAMG:  Solving for p, Initial residual = 0.0298816, Final residual = 0.000211182, No Iterations 4
time step continuity errors : sum local = 2.46548e-05, global = 3.18321e-07, cumulative = -2.2033e-05
GAMG:  Solving for p, Initial residual = 0.00616193, Final residual = 8.58546e-07, No Iterations 10
time step continuity errors : sum local = 1.00597e-07, global = 2.9616e-08, cumulative = -2.20034e-05
smoothSolver:  Solving for epsilon, Initial residual = 0.0119792, Final residual = 4.72479e-06, No Iterations 6
smoothSolver:  Solving for k, Initial residual = 0.0207174, Final residual = 3.36777e-06, No Iterations 7
ExecutionTime = 1.08 s  ClockTime = 1 s

Courant Number mean: 1.65216 max: 4.93625
deltaT = 0.00290286
Time = 0.25936

PIMPLE: iteration 1
smoothSolver:  Solving for Ux, Initial residual = 0.00513431, Final residual = 4.16983e-06, No Iterations 6
smoothSolver:  Solving for Uy, Initial residual = 0.00547998, Final residual = 8.00928e-06, No Iterations 5
smoothSolver:  Solving for Uz, Initial residual = 0.0249704, Final residual = 4.61843e-06, No Iterations 7
GAMG:  Solving for p, Initial residual = 0.0284519, Final residual = 0.000169488, No Iterations 4
time step continuity errors : sum local = 2.03615e-05, global = 5.90095e-07, cumulative = -2.14133e-05
GAMG:  Solving for p, Initial residual = 0.0059652, Final residual = 8.1053e-07, No Iterations 10
time step continuity errors : sum local = 9.73885e-08, global = -2.57691e-08, cumulative = -2.1439e-05
smoothSolver:  Solving for epsilon, Initial residual = 0.0115673, Final residual = 4.53438e-06, No Iterations 6
smoothSolver:  Solving for k, Initial residual = 0.020322, Final residual = 3.42132e-06, No Iterations 7
ExecutionTime = 1.09 s  ClockTime = 1 s

Courant Number mean: 1.65791 max: 4.93031
deltaT = 0.00290286
Time = 0.262263

PIMPLE: iteration 1
smoothSolver:  Solving for Ux, Initial residual = 0.00503873, Final residual = 9.96718e-06, No Iterations 5
smoothSolver:  Solving for Uy, Initial residual = 0.00534503, Final residual = 7.40995e-06, No Iterations 5
smoothSolver:  Solving for Uz, Initial residual = 0.0240586, Final residual = 4.75298e-06, No Iterations 7
GAMG:  Solving for p, Initial residual = 0.0297611, Final residual = 0.00023632, No Iterations 4
time step continuity errors : sum local = 2.78181e-05, global = 4.29428e-07, cumulative = -2.10096e-05
GAMG:  Solving for p, Initial residual = 0.00624814, Final residual = 9.75144e-07, No Iterations 10
time step continuity errors : sum local = 1.15093e-07, global = 4.28632e-08, cumulative = -2.09667e-05
smoothSolver:  Solving for epsilon, Initial residual = 0.0114962, Final residual = 4.48504e-06, No Iterations 6
smoothSolver:  Solving for k, Initial residual = 0.0201168, Final residual = 3.28047e-06, No Iterations 7
ExecutionTime = 1.11 s  ClockTime = 1 s

Courant Number mean: 1.66272 max: 4.98037
deltaT = 0.00290286
Time = 0.265166

PIMPLE: iteration 1
smoothSolver:  Solving for Ux, Initial residual = 0.0050599, Final residual = 4.04055e-06, No Iterations 6
smoothSolver:  Solving for Uy, Initial residual = 0.00536255, Final residual = 7.76123e-06, No Iterations 5
smoothSolver:  Solving for Uz, Initial residual = 0.0234512, Final residual = 4.39128e-06, No Iterations 7
GAMG:  Solving for p, Initial residual = 0.0291565, Final residual = 0.000173078, No Iterations 4
time step continuity errors : sum local = 2.09272e-05, global = -8.51635e-07, cumulative = -2.18184e-05
GAMG:  Solving for p, Initial residual = 0.0059739, Final residual = 8.19117e-07, No Iterations 10
time step continuity errors : sum local = 9.89632e-08, global = -2.80772e-08, cumulative = -2.18464e-05
smoothSolver:  Solving for epsilon, Initial residual = 0.0110956, Final residual = 4.39977e-06, No Iterations 6
smoothSolver:  Solving for k, Initial residual = 0.0195341, Final residual = 3.17557e-06, No Iterations 7
ExecutionTime = 1.12 s  ClockTime = 1 s

Courant Number mean: 1.66874 max: 4.97617
deltaT = 0.00290286
Time = 0.268069

PIMPLE: iteration 1
smoothSolver:  Solving for Ux, Initial residual = 0.00496859, Final residual = 9.86984e-06, No Iterations 5
smoothSolver:  Solving for Uy, Initial residual = 0.00524405, Final residual = 7.22341e-06, No Iterations 5
smoothSolver:  Solving for Uz, Initial residual = 0.0229156, Final residual = 4.16787e-06, No Iterations 7
GAMG:  Solving for p, Initial residual = 0.0296916, Final residual = 0.000245084, No Iterations 4
time step continuity errors : sum local = 2.9189e-05, global = -1.90372e-06, cumulative = -2.37502e-05
GAMG:  Solving for p, Initial residual = 0.00614019, Final residual = 9.40361e-07, No Iterations 10
time step continuity errors : sum local = 1.12262e-07, global = 4.33768e-08, cumulative = -2.37068e-05
smoothSolver:  Solving for epsilon, Initial residual = 0.0110475, Final residual = 4.23704e-06, No Iterations 6
smoothSolver:  Solving for k, Initial residual = 0.0192631, Final residual = 3.29784e-06, No Iterations 7
ExecutionTime = 1.14 s  ClockTime = 1 s

Courant Number mean: 1.67452 max: 5.01607
deltaT = 0.00290286
Time = 0.270971

PIMPLE: iteration 1
smoothSolver:  Solving for Ux, Initial residual = 0.00492368, Final residual = 4.05627e-06, No Iterations 6
smoothSolver:  Solving for Uy, Initial residual = 0.0052577, Final residual = 7.63512e-06, No Iterations 5
smoothSolver:  Solving for Uz, Initial residual = 0.0222565, Final residual = 4.02678e-06, No Iterations 7
GAMG:  Solving for p, Initial residual = 0.0296851, Final residual = 0.000197041, No Iterations 4
time step continuity errors : sum local = 2.39122e-05, global = 1.5713e-06, cumulative = -2.21355e-05
GAMG:  Solving for p, Initial residual = 0.00608153, Final residual = 8.82424e-07, No Iterations 10
time step continuity errors : sum local = 1.0712e-07, global = -2.79456e-08, cumulative = -2.21634e-05
smoothSolver:  Solving for epsilon, Initial residual = 0.0106161, Final residual = 4.05924e-06, No Iterations 6
smoothSolver:  Solving for k, Initial residual = 0.0186685, Final residual = 3.11742e-06, No Iterations 7
ExecutionTime = 1.16 s  ClockTime = 1 s

Courant Number mean: 1.68132 max: 5.02223
deltaT = 0.00290286
Time = 0.273874

PIMPLE: iteration 1
smoothSolver:  Solving for Ux, Initial residual = 0.00486627, Final residual = 9.66513e-06, No Iterations 5
smoothSolver:  Solving for Uy, Initial residual = 0.00510929, Final residual = 7.0341e-06, No Iterations 5
smoothSolver:  Solving for Uz, Initial residual = 0.0213539, Final residual = 3.7344e-06, No Iterations 7
GAMG:  Solving for p, Initial residual = 0.0304718, Final residual = 0.000228219, No Iterations 4
time step continuity errors : sum local = 2.73864e-05, global = -1.77921e-06, cumulative = -2.39426e-05
GAMG:  Solving for p, Initial residual = 0.00615089, Final residual = 9.40535e-07, No Iterations 10
time step continuity errors : sum local = 1.13043e-07, global = 4.26965e-08, cumulative = -2.39e-05
smoothSolver:  Solving for epsilon, Initial residual = 0.0105954, Final residual = 4.1085e-06, No Iterations 6
smoothSolver:  Solving for k, Initial residual = 0.0184495, Final residual = 3.29166e-06, No Iterations 7
ExecutionTime = 1.18 s  ClockTime = 1 s

Courant Number mean: 1.68891 max: 5.04775
deltaT = 0.00290286
Time = 0.276777

PIMPLE: iteration 1
smoothSolver:  Solving for Ux, Initial residual = 0.00489578, Final residual = 3.9999e-06, No Iterations 6
smoothSolver:  Solving for Uy, Initial residual = 0.00520689, Final residual = 7.35768e-06, No Iterations 5
smoothSolver:  Solving for Uz, Initial residual = 0.0208459, Final residual = 3.7183e-06, No Iterations 7
GAMG:  Solving for p, Initial residual = 0.0302493, Final residual = 0.000195806, No Iterations 4
time step continuity errors : sum local = 2.40552e-05, global = 1.41229e-06, cumulative = -2.24877e-05
GAMG:  Solving for p, Initial residual = 0.00611924, Final residual = 9.56335e-07, No Iterations 10
time step continuity errors : sum local = 1.17622e-07, global = -2.98473e-08, cumulative = -2.25175e-05
smoothSolver:  Solving for epsilon, Initial residual = 0.00982713, Final residual = 4.0356e-06, No Iterations 6
smoothSolver:  Solving for k, Initial residual = 0.017893, Final residual = 9.74419e-06, No Iterations 6
ExecutionTime = 1.19 s  ClockTime = 1 s

Courant Number mean: 1.69984 max: 5.06729
deltaT = 0.00290286
Time = 0.27968

PIMPLE: iteration 1
smoothSolver:  Solving for Ux, Initial residual = 0.00476602, Final residual = 9.44405e-06, No Iterations 5
smoothSolver:  Solving for Uy, Initial residual = 0.00500586, Final residual = 6.80544e-06, No Iterations 5
smoothSolver:  Solving for Uz, Initial residual = 0.0198675, Final residual = 3.42046e-06, No Iterations 7
GAMG:  Solving for p, Initial residual = 0.0309123, Final residual = 0.000267269, No Iterations 4
time step continuity errors : sum local = 3.26522e-05, global = -3.20525e-06, cumulative = -2.57228e-05
GAMG:  Solving for p, Initial residual = 0.00616079, Final residual = 8.34187e-07, No Iterations 10
time step continuity errors : sum local = 1.02157e-07, global = 4.25093e-08, cumulative = -2.56803e-05
smoothSolver:  Solving for epsilon, Initial residual = 0.00964394, Final residual = 3.90649e-06, No Iterations 6
smoothSolver:  Solving for k, Initial residual = 0.0175155, Final residual = 9.90019e-06, No Iterations 6
ExecutionTime = 1.22 s  ClockTime = 1 s

Courant Number mean: 1.71057 max: 5.08926
deltaT = 0.00290286
Time = 0.282583

PIMPLE: iteration 1
smoothSolver:  Solving for Ux, Initial residual = 0.00479601, Final residual = 3.99054e-06, No Iterations 6
smoothSolver:  Solving for Uy, Initial residual = 0.00509875, Final residual = 7.18467e-06, No Iterations 5
smoothSolver:  Solving for Uz, Initial residual = 0.0194228, Final residual = 3.39573e-06, No Iterations 7
GAMG:  Solving for p, Initial residual = 0.0306968, Final residual = 0.000220673, No Iterations 4
time step continuity errors : sum local = 2.72593e-05, global = 1.89777e-06, cumulative = -2.37825e-05
GAMG:  Solving for p, Initial residual = 0.00627494, Final residual = 6.62162e-07, No Iterations 11
time step continuity errors : sum local = 8.19575e-08, global = 1.8592e-08, cumulative = -2.37639e-05
smoothSolver:  Solving for epsilon, Initial residual = 0.00912375, Final residual = 3.78922e-06, No Iterations 6
smoothSolver:  Solving for k, Initial residual = 0.016938, Final residual = 9.58285e-06, No Iterations 6
ExecutionTime = 1.24 s  ClockTime = 1 s

Courant Number mean: 1.72318 max: 5.11116
deltaT = 0.00290286
Time = 0.285486

PIMPLE: iteration 1
smoothSolver:  Solving for Ux, Initial residual = 0.00469177, Final residual = 9.58332e-06, No Iterations 5
smoothSolver:  Solving for Uy, Initial residual = 0.00490392, Final residual = 6.57662e-06, No Iterations 5
smoothSolver:  Solving for Uz, Initial residual = 0.0181699, Final residual = 9.72886e-06, No Iterations 6
[...]
time step continuity errors : sum local = 6.02514e-08, global = -3.62156e-09, cumulative = 1.29596e-05
smoothSolver:  Solving for epsilon, Initial residual = 0.0012298, Final residual = 4.50942e-06, No Iterations 3
smoothSolver:  Solving for k, Initial residual = 0.0018439, Final residual = 4.34697e-06, No Iterations 4
ExecutionTime = 10.46 s  ClockTime = 10 s

Courant Number mean: 2.47494 max: 4.84579
deltaT = 0.00188644
Time = 1.46793

PIMPLE: iteration 1
smoothSolver:  Solving for Ux, Initial residual = 0.000713689, Final residual = 7.46343e-06, No Iterations 3
smoothSolver:  Solving for Uy, Initial residual = 0.00133579, Final residual = 5.28918e-06, No Iterations 4
smoothSolver:  Solving for Uz, Initial residual = 0.00366211, Final residual = 5.02757e-06, No Iterations 5
GAMG:  Solving for p, Initial residual = 0.021452, Final residual = 8.25698e-05, No Iterations 4
time step continuity errors : sum local = 8.0979e-06, global = 3.24905e-07, cumulative = 1.32845e-05
GAMG:  Solving for p, Initial residual = 0.00410589, Final residual = 4.13408e-07, No Iterations 7
time step continuity errors : sum local = 4.05094e-08, global = 1.01631e-08, cumulative = 1.32947e-05
smoothSolver:  Solving for epsilon, Initial residual = 0.00115291, Final residual = 4.97391e-06, No Iterations 3
smoothSolver:  Solving for k, Initial residual = 0.00193576, Final residual = 4.92981e-06, No Iterations 4
ExecutionTime = 10.48 s  ClockTime = 10 s

Courant Number mean: 2.61241 max: 5.15538
deltaT = 0.00178164
Time = 1.46971

PIMPLE: iteration 1
smoothSolver:  Solving for Ux, Initial residual = 0.000715598, Final residual = 7.0635e-06, No Iterations 3
smoothSolver:  Solving for Uy, Initial residual = 0.00126031, Final residual = 4.67761e-06, No Iterations 4
smoothSolver:  Solving for Uz, Initial residual = 0.0035127, Final residual = 5.30691e-06, No Iterations 5
GAMG:  Solving for p, Initial residual = 0.0225329, Final residual = 8.62537e-05, No Iterations 4
time step continuity errors : sum local = 7.96464e-06, global = -2.92303e-07, cumulative = 1.30024e-05
GAMG:  Solving for p, Initial residual = 0.00423969, Final residual = 7.27017e-07, No Iterations 7
time step continuity errors : sum local = 6.69447e-08, global = -2.06023e-09, cumulative = 1.30003e-05
smoothSolver:  Solving for epsilon, Initial residual = 0.00121036, Final residual = 4.8742e-06, No Iterations 3
smoothSolver:  Solving for k, Initial residual = 0.00186188, Final residual = 4.37839e-06, No Iterations 4
ExecutionTime = 10.49 s  ClockTime = 10 s

Courant Number mean: 2.46726 max: 4.82974
deltaT = 0.00189299
Time = 1.47161

PIMPLE: iteration 1
smoothSolver:  Solving for Ux, Initial residual = 0.000710662, Final residual = 7.45528e-06, No Iterations 3
smoothSolver:  Solving for Uy, Initial residual = 0.00132218, Final residual = 5.30895e-06, No Iterations 4
smoothSolver:  Solving for Uz, Initial residual = 0.00365592, Final residual = 4.93995e-06, No Iterations 5
GAMG:  Solving for p, Initial residual = 0.0214827, Final residual = 8.30893e-05, No Iterations 4
time step continuity errors : sum local = 8.17719e-06, global = 2.89372e-07, cumulative = 1.32897e-05
GAMG:  Solving for p, Initial residual = 0.00413166, Final residual = 4.26899e-07, No Iterations 7
time step continuity errors : sum local = 4.19848e-08, global = 1.21591e-08, cumulative = 1.33018e-05
smoothSolver:  Solving for epsilon, Initial residual = 0.00113643, Final residual = 4.7817e-06, No Iterations 3
smoothSolver:  Solving for k, Initial residual = 0.00186436, Final residual = 4.67361e-06, No Iterations 4
ExecutionTime = 10.51 s  ClockTime = 10 s

Courant Number mean: 2.62143 max: 5.17741
deltaT = 0.00177468
Time = 1.47338

PIMPLE: iteration 1
smoothSolver:  Solving for Ux, Initial residual = 0.000718095, Final residual = 7.11179e-06, No Iterations 3
smoothSolver:  Solving for Uy, Initial residual = 0.00124828, Final residual = 4.72351e-06, No Iterations 4
smoothSolver:  Solving for Uz, Initial residual = 0.0033975, Final residual = 5.0215e-06, No Iterations 5
GAMG:  Solving for p, Initial residual = 0.0224557, Final residual = 8.72323e-05, No Iterations 4
time step continuity errors : sum local = 8.01899e-06, global = -3.17459e-07, cumulative = 1.29844e-05
GAMG:  Solving for p, Initial residual = 0.00422113, Final residual = 7.01873e-07, No Iterations 7
time step continuity errors : sum local = 6.43406e-08, global = -4.48411e-09, cumulative = 1.29799e-05
smoothSolver:  Solving for epsilon, Initial residual = 0.00123322, Final residual = 4.60795e-06, No Iterations 3
smoothSolver:  Solving for k, Initial residual = 0.00183154, Final residual = 4.81572e-06, No Iterations 4
ExecutionTime = 10.52 s  ClockTime = 10 s

Courant Number mean: 2.45757 max: 4.81389
deltaT = 0.00190144
Time = 1.47528

PIMPLE: iteration 1
smoothSolver:  Solving for Ux, Initial residual = 0.000717004, Final residual = 7.45135e-06, No Iterations 3
smoothSolver:  Solving for Uy, Initial residual = 0.00134049, Final residual = 5.43713e-06, No Iterations 4
smoothSolver:  Solving for Uz, Initial residual = 0.0036655, Final residual = 5.26628e-06, No Iterations 5
GAMG:  Solving for p, Initial residual = 0.0220266, Final residual = 8.26741e-05, No Iterations 4
time step continuity errors : sum local = 8.18294e-06, global = 2.96962e-07, cumulative = 1.32768e-05
GAMG:  Solving for p, Initial residual = 0.00418127, Final residual = 3.89335e-07, No Iterations 7
time step continuity errors : sum local = 3.85078e-08, global = 1.32721e-08, cumulative = 1.32901e-05
smoothSolver:  Solving for epsilon, Initial residual = 0.00114666, Final residual = 4.9976e-06, No Iterations 3
smoothSolver:  Solving for k, Initial residual = 0.00201845, Final residual = 5.31514e-06, No Iterations 4
ExecutionTime = 10.54 s  ClockTime = 10 s

Courant Number mean: 2.63305 max: 5.19459
deltaT = 0.00176562
Time = 1.47705

PIMPLE: iteration 1
smoothSolver:  Solving for Ux, Initial residual = 0.000720741, Final residual = 7.05272e-06, No Iterations 3
smoothSolver:  Solving for Uy, Initial residual = 0.00126272, Final residual = 4.72217e-06, No Iterations 4
smoothSolver:  Solving for Uz, Initial residual = 0.00369983, Final residual = 5.32714e-06, No Iterations 5
GAMG:  Solving for p, Initial residual = 0.0232966, Final residual = 8.83249e-05, No Iterations 4
time step continuity errors : sum local = 8.06829e-06, global = -3.45084e-07, cumulative = 1.2945e-05
GAMG:  Solving for p, Initial residual = 0.0043188, Final residual = 7.49378e-07, No Iterations 7
time step continuity errors : sum local = 6.82561e-08, global = -1.54831e-09, cumulative = 1.29435e-05
smoothSolver:  Solving for epsilon, Initial residual = 0.00112029, Final residual = 4.84003e-06, No Iterations 3
smoothSolver:  Solving for k, Initial residual = 0.00200392, Final residual = 4.48224e-06, No Iterations 4
ExecutionTime = 10.55 s  ClockTime = 10 s

Courant Number mean: 2.44495 max: 4.78718
deltaT = 0.00191276
Time = 1.47896

PIMPLE: iteration 1
smoothSolver:  Solving for Ux, Initial residual = 0.000712024, Final residual = 7.41452e-06, No Iterations 3
smoothSolver:  Solving for Uy, Initial residual = 0.00132987, Final residual = 5.39656e-06, No Iterations 4
smoothSolver:  Solving for Uz, Initial residual = 0.00378232, Final residual = 5.34121e-06, No Iterations 5
GAMG:  Solving for p, Initial residual = 0.0223424, Final residual = 8.4438e-05, No Iterations 4
time step continuity errors : sum local = 8.41234e-06, global = 2.79711e-07, cumulative = 1.32232e-05
GAMG:  Solving for p, Initial residual = 0.00417501, Final residual = 4.13166e-07, No Iterations 7
time step continuity errors : sum local = 4.1139e-08, global = 1.46396e-08, cumulative = 1.32378e-05
smoothSolver:  Solving for epsilon, Initial residual = 0.0011401, Final residual = 4.65666e-06, No Iterations 3
smoothSolver:  Solving for k, Initial residual = 0.00184168, Final residual = 5.12144e-06, No Iterations 4
ExecutionTime = 10.56 s  ClockTime = 10 s

Courant Number mean: 2.64865 max: 5.22628
deltaT = 0.00191276
Time = 1.48087

PIMPLE: iteration 1
smoothSolver:  Solving for Ux, Initial residual = 0.000722323, Final residual = 7.39068e-06, No Iterations 3
smoothSolver:  Solving for Uy, Initial residual = 0.00126346, Final residual = 5.03925e-06, No Iterations 4
smoothSolver:  Solving for Uz, Initial residual = 0.00368061, Final residual = 5.84965e-06, No Iterations 5
GAMG:  Solving for p, Initial residual = 0.0208118, Final residual = 8.46747e-05, No Iterations 4
time step continuity errors : sum local = 8.50335e-06, global = -3.56804e-07, cumulative = 1.2881e-05
GAMG:  Solving for p, Initial residual = 0.00414541, Final residual = 6.49442e-07, No Iterations 7
time step continuity errors : sum local = 6.50534e-08, global = -6.12836e-09, cumulative = 1.28749e-05
smoothSolver:  Solving for epsilon, Initial residual = 0.00118349, Final residual = 5.10071e-06, No Iterations 3
smoothSolver:  Solving for k, Initial residual = 0.00190537, Final residual = 4.90412e-06, No Iterations 4
ExecutionTime = 10.58 s  ClockTime = 10 s

Courant Number mean: 2.64864 max: 5.18671
deltaT = 0.00191276
Time = 1.48279

PIMPLE: iteration 1
smoothSolver:  Solving for Ux, Initial residual = 0.000717111, Final residual = 7.676e-06, No Iterations 3
smoothSolver:  Solving for Uy, Initial residual = 0.00134033, Final residual = 5.36919e-06, No Iterations 4
smoothSolver:  Solving for Uz, Initial residual = 0.00367102, Final residual = 5.36226e-06, No Iterations 5
GAMG:  Solving for p, Initial residual = 0.0201532, Final residual = 7.89259e-05, No Iterations 4
time step continuity errors : sum local = 7.86584e-06, global = 2.46623e-07, cumulative = 1.31215e-05
GAMG:  Solving for p, Initial residual = 0.0039972, Final residual = 4.36439e-07, No Iterations 7
time step continuity errors : sum local = 4.34468e-08, global = 1.32574e-08, cumulative = 1.31348e-05
smoothSolver:  Solving for epsilon, Initial residual = 0.00110161, Final residual = 4.8416e-06, No Iterations 3
smoothSolver:  Solving for k, Initial residual = 0.00181274, Final residual = 4.51874e-06, No Iterations 4
ExecutionTime = 10.59 s  ClockTime = 10 s

Courant Number mean: 2.6486 max: 5.22516
deltaT = 0.00191276
Time = 1.4847

PIMPLE: iteration 1
smoothSolver:  Solving for Ux, Initial residual = 0.000716552, Final residual = 7.36524e-06, No Iterations 3
smoothSolver:  Solving for Uy, Initial residual = 0.00126557, Final residual = 4.78075e-06, No Iterations 4
smoothSolver:  Solving for Uz, Initial residual = 0.00371397, Final residual = 6.03447e-06, No Iterations 5
GAMG:  Solving for p, Initial residual = 0.0208795, Final residual = 8.18946e-05, No Iterations 4
time step continuity errors : sum local = 8.21875e-06, global = -3.60249e-07, cumulative = 1.27745e-05
GAMG:  Solving for p, Initial residual = 0.00411875, Final residual = 6.9577e-07, No Iterations 7
time step continuity errors : sum local = 6.96588e-08, global = -7.05617e-09, cumulative = 1.27675e-05
smoothSolver:  Solving for epsilon, Initial residual = 0.00120393, Final residual = 5.49757e-06, No Iterations 3
smoothSolver:  Solving for k, Initial residual = 0.00182884, Final residual = 4.32889e-06, No Iterations 4
ExecutionTime = 10.61 s  ClockTime = 10 s

Courant Number mean: 2.64859 max: 5.1849
deltaT = 0.00191276
Time = 1.48661

PIMPLE: iteration 1
smoothSolver:  Solving for Ux, Initial residual = 0.000705296, Final residual = 7.50562e-06, No Iterations 3
smoothSolver:  Solving for Uy, Initial residual = 0.00131488, Final residual = 5.23725e-06, No Iterations 4
smoothSolver:  Solving for Uz, Initial residual = 0.00364073, Final residual = 5.17261e-06, No Iterations 5
GAMG:  Solving for p, Initial residual = 0.020038, Final residual = 7.78664e-05, No Iterations 4
time step continuity errors : sum local = 7.75682e-06, global = 2.26596e-07, cumulative = 1.29941e-05
GAMG:  Solving for p, Initial residual = 0.00392364, Final residual = 4.43798e-07, No Iterations 7
time step continuity errors : sum local = 4.41725e-08, global = 1.49196e-08, cumulative = 1.3009e-05
smoothSolver:  Solving for epsilon, Initial residual = 0.00115766, Final residual = 4.87354e-06, No Iterations 3
smoothSolver:  Solving for k, Initial residual = 0.00180568, Final residual = 4.03789e-06, No Iterations 4
ExecutionTime = 10.62 s  ClockTime = 10 s

Courant Number mean: 2.64857 max: 5.22562
deltaT = 0.00191276
Time = 1.48852

PIMPLE: iteration 1
smoothSolver:  Solving for Ux, Initial residual = 0.000712481, Final residual = 7.43901e-06, No Iterations 3
smoothSolver:  Solving for Uy, Initial residual = 0.00124834, Final residual = 4.87115e-06, No Iterations 4
smoothSolver:  Solving for Uz, Initial residual = 0.00347959, Final residual = 5.81994e-06, No Iterations 5
GAMG:  Solving for p, Initial residual = 0.0206403, Final residual = 8.20411e-05, No Iterations 4
time step continuity errors : sum local = 8.23494e-06, global = -3.47393e-07, cumulative = 1.26616e-05
GAMG:  Solving for p, Initial residual = 0.0040574, Final residual = 6.34555e-07, No Iterations 7
time step continuity errors : sum local = 6.35406e-08, global = -8.38924e-09, cumulative = 1.26532e-05
smoothSolver:  Solving for epsilon, Initial residual = 0.00124717, Final residual = 4.92862e-06, No Iterations 3
smoothSolver:  Solving for k, Initial residual = 0.00181791, Final residual = 4.15263e-06, No Iterations 4
ExecutionTime = 10.63 s  ClockTime = 10 s

Courant Number mean: 2.64858 max: 5.18628
deltaT = 0.00191276
Time = 1.49044

PIMPLE: iteration 1
smoothSolver:  Solving for Ux, Initial residual = 0.000714255, Final residual = 7.64817e-06, No Iterations 3
smoothSolver:  Solving for Uy, Initial residual = 0.00133772, Final residual = 5.27661e-06, No Iterations 4
smoothSolver:  Solving for Uz, Initial residual = 0.00360365, Final residual = 5.11285e-06, No Iterations 5
GAMG:  Solving for p, Initial residual = 0.0201111, Final residual = 7.87979e-05, No Iterations 4
time step continuity errors : sum local = 7.85253e-06, global = 2.52847e-07, cumulative = 1.29061e-05
GAMG:  Solving for p, Initial residual = 0.00397756, Final residual = 4.37139e-07, No Iterations 7
time step continuity errors : sum local = 4.35169e-08, global = 1.40282e-08, cumulative = 1.29201e-05
smoothSolver:  Solving for epsilon, Initial residual = 0.00115227, Final residual = 4.3396e-06, No Iterations 3
smoothSolver:  Solving for k, Initial residual = 0.00188317, Final residual = 4.03661e-06, No Iterations 4
ExecutionTime = 10.65 s  ClockTime = 11 s

Courant Number mean: 2.64855 max: 5.22695
deltaT = 0.00191276
Time = 1.49235

PIMPLE: iteration 1
smoothSolver:  Solving for Ux, Initial residual = 0.000713956, Final residual = 7.37469e-06, No Iterations 3
smoothSolver:  Solving for Uy, Initial residual = 0.00126321, Final residual = 4.79698e-06, No Iterations 4
smoothSolver:  Solving for Uz, Initial residual = 0.00353091, Final residual = 5.98086e-06, No Iterations 5
GAMG:  Solving for p, Initial residual = 0.0209741, Final residual = 8.13028e-05, No Iterations 4
time step continuity errors : sum local = 8.15905e-06, global = -3.45803e-07, cumulative = 1.25743e-05
GAMG:  Solving for p, Initial residual = 0.00408704, Final residual = 6.72419e-07, No Iterations 7
time step continuity errors : sum local = 6.73189e-08, global = -6.9709e-09, cumulative = 1.25673e-05
smoothSolver:  Solving for epsilon, Initial residual = 0.00125956, Final residual = 4.34571e-06, No Iterations 3
smoothSolver:  Solving for k, Initial residual = 0.00200968, Final residual = 3.83965e-06, No Iterations 4
ExecutionTime = 10.66 s  ClockTime = 11 s

Courant Number mean: 2.64856 max: 5.18499
deltaT = 0.00191276
Time = 1.49426

PIMPLE: iteration 1
smoothSolver:  Solving for Ux, Initial residual = 0.000707176, Final residual = 7.56966e-06, No Iterations 3
smoothSolver:  Solving for Uy, Initial residual = 0.00132913, Final residual = 5.22992e-06, No Iterations 4
smoothSolver:  Solving for Uz, Initial residual = 0.00355678, Final residual = 4.9489e-06, No Iterations 5
GAMG:  Solving for p, Initial residual = 0.0201581, Final residual = 7.81969e-05, No Iterations 4
time step continuity errors : sum local = 7.79006e-06, global = 2.36081e-07, cumulative = 1.28034e-05
GAMG:  Solving for p, Initial residual = 0.00396285, Final residual = 4.66888e-07, No Iterations 7
time step continuity errors : sum local = 4.64694e-08, global = 1.33962e-08, cumulative = 1.28168e-05
smoothSolver:  Solving for epsilon, Initial residual = 0.00112397, Final residual = 3.91648e-06, No Iterations 3
smoothSolver:  Solving for k, Initial residual = 0.00195125, Final residual = 3.83826e-06, No Iterations 4
ExecutionTime = 10.67 s  ClockTime = 11 s

Courant Number mean: 2.64856 max: 5.22816
deltaT = 0.00191276
Time = 1.49617

PIMPLE: iteration 1
smoothSolver:  Solving for Ux, Initial residual = 0.000708111, Final residual = 7.34978e-06, No Iterations 3
smoothSolver:  Solving for Uy, Initial residual = 0.00126006, Final residual = 4.87626e-06, No Iterations 4
smoothSolver:  Solving for Uz, Initial residual = 0.00346077, Final residual = 6.0544e-06, No Iterations 5
GAMG:  Solving for p, Initial residual = 0.0209117, Final residual = 8.19777e-05, No Iterations 4
time step continuity errors : sum local = 8.22809e-06, global = -3.42771e-07, cumulative = 1.2474e-05
GAMG:  Solving for p, Initial residual = 0.0040589, Final residual = 5.9194e-07, No Iterations 7
time step continuity errors : sum local = 5.92655e-08, global = -7.3262e-09, cumulative = 1.24667e-05
smoothSolver:  Solving for epsilon, Initial residual = 0.00114022, Final residual = 3.55452e-06, No Iterations 3
smoothSolver:  Solving for k, Initial residual = 0.00186388, Final residual = 3.4931e-06, No Iterations 4
ExecutionTime = 10.68 s  ClockTime = 11 s

Courant Number mean: 2.64858 max: 5.18839
deltaT = 0.00191276
Time = 1.49809

PIMPLE: iteration 1
smoothSolver:  Solving for Ux, Initial residual = 0.000718401, Final residual = 7.68309e-06, No Iterations 3
smoothSolver:  Solving for Uy, Initial residual = 0.00134556, Final residual = 5.28975e-06, No Iterations 4
smoothSolver:  Solving for Uz, Initial residual = 0.00356899, Final residual = 5.12125e-06, No Iterations 5
GAMG:  Solving for p, Initial residual = 0.0202062, Final residual = 7.92918e-05, No Iterations 4
time step continuity errors : sum local = 7.90201e-06, global = 2.6335e-07, cumulative = 1.273e-05
GAMG:  Solving for p, Initial residual = 0.00399917, Final residual = 4.48881e-07, No Iterations 7
time step continuity errors : sum local = 4.46851e-08, global = 1.26301e-08, cumulative = 1.27427e-05
smoothSolver:  Solving for epsilon, Initial residual = 0.000974992, Final residual = 3.68527e-06, No Iterations 3
smoothSolver:  Solving for k, Initial residual = 0.00170236, Final residual = 3.58976e-06, No Iterations 4
ExecutionTime = 10.7 s  ClockTime = 11 s

Courant Number mean: 2.64857 max: 5.23163
deltaT = 0.00191276
Time = 1.5

PIMPLE: iteration 1
smoothSolver:  Solving for Ux, Initial residual = 0.000714296, Final residual = 7.35612e-06, No Iterations 3
smoothSolver:  Solving for Uy, Initial residual = 0.00126454, Final residual = 4.80519e-06, No Iterations 4
smoothSolver:  Solving for Uz, Initial residual = 0.00353642, Final residual = 6.11134e-06, No Iterations 5
GAMG:  Solving for p, Initial residual = 0.0210794, Final residual = 8.15774e-05, No Iterations 4
time step continuity errors : sum local = 8.18633e-06, global = -3.39437e-07, cumulative = 1.24032e-05
GAMG:  Solving for p, Initial residual = 0.00410933, Final residual = 6.51533e-07, No Iterations 7
time step continuity errors : sum local = 6.52294e-08, global = -6.52549e-09, cumulative = 1.23967e-05
smoothSolver:  Solving for epsilon, Initial residual = 0.001119, Final residual = 4.05061e-06, No Iterations 3
smoothSolver:  Solving for k, Initial residual = 0.00172964, Final residual = 3.13523e-06, No Iterations 4
ExecutionTime = 10.73 s  ClockTime = 11 s

End

