/*---------------------------------------------------------------------------*\
| =========                 |                                                 |
| \\      /  F ield         | OpenFOAM: The Open Source CFD Toolbox           |
|  \\    /   O peration     | Version:                                        |
|   \\  /    A nd           | Website:  www.openfoam.com                      |
|    \\/     M anipulation  |                                                 |
\*---------------------------------------------------------------------------*/
Build  : OPENFOAM=1912 patch=200626
Arch   : "LSB;label=32;scalar=64"
Exec   : pimpleFoam
Date   : Mar 20 2026
Time   : 15:28:56
Host   : DESKTOP-8MPCJP1
PID    : 425
I/O    : uncollated
Case   : /root/openfoam_validation/bead1p5
nProcs : 1
trapFpe: Floating point exception trapping enabled (FOAM_SIGFPE).
fileModificationChecking : Monitoring run-time modified files using timeStampMaster (fileModificationSkew 10)
allowSystemOperations : Allowing user-supplied system call operations

// * * * * * * * * * * * * * * * * * * * * * * * * * * * * * * * * * * * * * //
Create time

Create mesh for time = 0


PIMPLE: Operating solver in PISO mode

Reading field p

Reading field U

Reading/calculating face flux field phi

Selecting incompressible transport model Newtonian
Selecting turbulence model type RAS
Selecting RAS turbulence model kEpsilon
RAS
{
    RASModel        kEpsilon;
    turbulence      on;
    printCoeffs     on;
    Cmu             0.09;
    C1              1.44;
    C2              1.92;
    C3              0;
    sigmak          1;
    sigmaEps        1.3;
}

No MRF models present

No finite volume options present
Courant Number mean: 0 max: 0

Starting time loop

Courant Number mean: 0 max: 0
deltaT = 0.00120482
Time = 0.00120482

PIMPLE: iteration 1
smoothSolver:  Solving for Ux, Initial residual = 1, Final residual = 9.08322e-06, No Iterations 1
smoothSolver:  Solving for Uy, Initial residual = 1, Final residual = 2.09433e-10, No Iterations 2
smoothSolver:  Solving for Uz, Initial residual = 0, Final residual = 0, No Iterations 0
GAMG:  Solving for p, Initial residual = 1, Final residual = 0.00855206, No Iterations 1
time step continuity errors : sum local = 0.000199709, global = 1.7907e-05, cumulative = 1.7907e-05
GAMG:  Solving for p, Initial residual = 0.00792092, Final residual = 6.58707e-07, No Iterations 8
time step continuity errors : sum local = 2.0781e-08, global = 5.79144e-09, cumulative = 1.79128e-05
smoothSolver:  Solving for epsilon, Initial residual = 0.6507, Final residual = 8.25012e-07, No Iterations 1
smoothSolver:  Solving for k, Initial residual = 1, Final residual = 8.37447e-06, No Iterations 1
ExecutionTime = 0.08 s  ClockTime = 0 s

Courant Number mean: 0.0078898 max: 0.0229797
deltaT = 0.00145287
Time = 0.00265769

PIMPLE: iteration 1
smoothSolver:  Solving for Ux, Initial residual = 0.326796, Final residual = 2.70961e-07, No Iterations 2
smoothSolver:  Solving for Uy, Initial residual = 0.485147, Final residual = 3.05342e-07, No Iterations 2
smoothSolver:  Solving for Uz, Initial residual = 0.878001, Final residual = 4.58891e-07, No Iterations 2
GAMG:  Solving for p, Initial residual = 0.00190576, Final residual = 1.42534e-05, No Iterations 2
time step continuity errors : sum local = 6.21253e-07, global = -7.82707e-08, cumulative = 1.78346e-05
GAMG:  Solving for p, Initial residual = 2.05018e-05, Final residual = 5.79718e-07, No Iterations 3
time step continuity errors : sum local = 2.52904e-08, global = -7.32573e-10, cumulative = 1.78338e-05
smoothSolver:  Solving for epsilon, Initial residual = 0.514991, Final residual = 4.40312e-10, No Iterations 2
smoothSolver:  Solving for k, Initial residual = 0.607791, Final residual = 3.03384e-07, No Iterations 2
ExecutionTime = 0.09 s  ClockTime = 0 s

Courant Number mean: 0.020969 max: 0.060931
deltaT = 0.00173826
Time = 0.00439595

PIMPLE: iteration 1
smoothSolver:  Solving for Ux, Initial residual = 0.208388, Final residual = 3.19418e-07, No Iterations 2
smoothSolver:  Solving for Uy, Initial residual = 0.336226, Final residual = 2.79511e-07, No Iterations 2
smoothSolver:  Solving for Uz, Initial residual = 0.388986, Final residual = 4.17802e-07, No Iterations 2
GAMG:  Solving for p, Initial residual = 0.00208158, Final residual = 6.42306e-06, No Iterations 3
time step continuity errors : sum local = 3.88679e-07, global = 3.17638e-08, cumulative = 1.78656e-05
GAMG:  Solving for p, Initial residual = 1.83721e-05, Final residual = 4.96364e-07, No Iterations 3
time step continuity errors : sum local = 3.00651e-08, global = -1.06353e-08, cumulative = 1.7855e-05
smoothSolver:  Solving for epsilon, Initial residual = 0.482041, Final residual = 7.86485e-09, No Iterations 2
smoothSolver:  Solving for k, Initial residual = 0.45911, Final residual = 5.2721e-07, No Iterations 2
ExecutionTime = 0.11 s  ClockTime = 0 s

Courant Number mean: 0.0414568 max: 0.120112
deltaT = 0.00207835
Time = 0.00647429

PIMPLE: iteration 1
smoothSolver:  Solving for Ux, Initial residual = 0.160132, Final residual = 4.57569e-07, No Iterations 2
smoothSolver:  Solving for Uy, Initial residual = 0.266772, Final residual = 3.07413e-07, No Iterations 2
smoothSolver:  Solving for Uz, Initial residual = 0.311488, Final residual = 6.91241e-07, No Iterations 2
GAMG:  Solving for p, Initial residual = 0.00255194, Final residual = 9.89593e-06, No Iterations 3
time step continuity errors : sum local = 8.33341e-07, global = 7.64419e-08, cumulative = 1.79314e-05
GAMG:  Solving for p, Initial residual = 3.62633e-05, Final residual = 7.05161e-07, No Iterations 3
time step continuity errors : sum local = 5.94518e-08, global = -1.98064e-08, cumulative = 1.79116e-05
smoothSolver:  Solving for epsilon, Initial residual = 0.524345, Final residual = 9.2805e-08, No Iterations 2
smoothSolver:  Solving for k, Initial residual = 0.3903, Final residual = 1.09518e-06, No Iterations 2
ExecutionTime = 0.14 s  ClockTime = 0 s

Courant Number mean: 0.0729238 max: 0.210403
deltaT = 0.0024612
Time = 0.0089355

PIMPLE: iteration 1
smoothSolver:  Solving for Ux, Initial residual = 0.133219, Final residual = 6.94397e-07, No Iterations 2
smoothSolver:  Solving for Uy, Initial residual = 0.225087, Final residual = 1.19008e-06, No Iterations 2
smoothSolver:  Solving for Uz, Initial residual = 0.238407, Final residual = 1.31909e-06, No Iterations 2
GAMG:  Solving for p, Initial residual = 0.0031175, Final residual = 1.65132e-05, No Iterations 3
time step continuity errors : sum local = 1.86875e-06, global = 2.91005e-07, cumulative = 1.82026e-05
GAMG:  Solving for p, Initial residual = 8.40847e-05, Final residual = 4.81547e-07, No Iterations 4
time step continuity errors : sum local = 5.45766e-08, global = -4.33283e-10, cumulative = 1.82022e-05
smoothSolver:  Solving for epsilon, Initial residual = 0.68882, Final residual = 1.02733e-06, No Iterations 2
smoothSolver:  Solving for k, Initial residual = 0.364783, Final residual = 2.88211e-06, No Iterations 2
ExecutionTime = 0.16 s  ClockTime = 0 s

Courant Number mean: 0.119025 max: 0.341465
deltaT = 0.00293756
Time = 0.0118731

PIMPLE: iteration 1
smoothSolver:  Solving for Ux, Initial residual = 0.117684, Final residual = 1.53311e-06, No Iterations 2
smoothSolver:  Solving for Uy, Initial residual = 0.199381, Final residual = 7.48536e-06, No Iterations 2
smoothSolver:  Solving for Uz, Initial residual = 0.272463, Final residual = 5.23602e-06, No Iterations 2
GAMG:  Solving for p, Initial residual = 0.0038552, Final residual = 2.75653e-05, No Iterations 3
time step continuity errors : sum local = 4.19291e-06, global = 8.14234e-07, cumulative = 1.90164e-05
GAMG:  Solving for p, Initial residual = 0.000185135, Final residual = 3.78439e-07, No Iterations 5
time step continuity errors : sum local = 5.76766e-08, global = -2.5375e-08, cumulative = 1.8991e-05
smoothSolver:  Solving for epsilon, Initial residual = 0.480108, Final residual = 5.11708e-06, No Iterations 2
smoothSolver:  Solving for k, Initial residual = 0.363284, Final residual = 8.76312e-08, No Iterations 3
ExecutionTime = 0.18 s  ClockTime = 0 s

Courant Number mean: 0.18843 max: 0.536788
deltaT = 0.00352508
Time = 0.0153981

PIMPLE: iteration 1
smoothSolver:  Solving for Ux, Initial residual = 0.10789, Final residual = 5.77255e-06, No Iterations 2
smoothSolver:  Solving for Uy, Initial residual = 0.181908, Final residual = 9.48705e-07, No Iterations 3
smoothSolver:  Solving for Uz, Initial residual = 0.293422, Final residual = 4.89434e-07, No Iterations 3
GAMG:  Solving for p, Initial residual = 0.00501253, Final residual = 4.72972e-05, No Iterations 3
time step continuity errors : sum local = 9.58321e-06, global = 2.22819e-06, cumulative = 2.12192e-05
GAMG:  Solving for p, Initial residual = 0.000430771, Final residual = 7.54763e-07, No Iterations 5
time step continuity errors : sum local = 1.53359e-07, global = -6.99291e-08, cumulative = 2.11493e-05
smoothSolver:  Solving for epsilon, Initial residual = 0.264086, Final residual = 2.68687e-07, No Iterations 3
smoothSolver:  Solving for k, Initial residual = 0.373863, Final residual = 1.1074e-06, No Iterations 3
ExecutionTime = 0.2 s  ClockTime = 0 s

Courant Number mean: 0.292532 max: 0.827166
deltaT = 0.00423009
Time = 0.0196282

PIMPLE: iteration 1
smoothSolver:  Solving for Ux, Initial residual = 0.101186, Final residual = 1.57031e-06, No Iterations 3
smoothSolver:  Solving for Uy, Initial residual = 0.168442, Final residual = 6.2072e-07, No Iterations 4
smoothSolver:  Solving for Uz, Initial residual = 0.290077, Final residual = 5.99627e-06, No Iterations 3
GAMG:  Solving for p, Initial residual = 0.00658272, Final residual = 2.74976e-05, No Iterations 4
time step continuity errors : sum local = 7.27262e-06, global = -1.37773e-06, cumulative = 1.97716e-05
GAMG:  Solving for p, Initial residual = 0.000986313, Final residual = 3.09955e-07, No Iterations 7
time step continuity errors : sum local = 8.23081e-08, global = -3.28915e-08, cumulative = 1.97387e-05
smoothSolver:  Solving for epsilon, Initial residual = 0.171924, Final residual = 2.3517e-06, No Iterations 3
smoothSolver:  Solving for k, Initial residual = 0.389175, Final residual = 7.58892e-07, No Iterations 4
ExecutionTime = 0.22 s  ClockTime = 0 s

Courant Number mean: 0.445988 max: 1.25394
deltaT = 0.00502324
Time = 0.0246515

PIMPLE: iteration 1
smoothSolver:  Solving for Ux, Initial residual = 0.0956431, Final residual = 3.94649e-06, No Iterations 4
smoothSolver:  Solving for Uy, Initial residual = 0.15575, Final residual = 1.8324e-06, No Iterations 5
smoothSolver:  Solving for Uz, Initial residual = 0.273908, Final residual = 8.93387e-06, No Iterations 4
GAMG:  Solving for p, Initial residual = 0.00846465, Final residual = 4.93553e-05, No Iterations 4
time step continuity errors : sum local = 1.68275e-05, global = -3.25308e-06, cumulative = 1.64856e-05
GAMG:  Solving for p, Initial residual = 0.00207004, Final residual = 6.38168e-07, No Iterations 7
time step continuity errors : sum local = 2.18871e-07, global = -8.6051e-08, cumulative = 1.63995e-05
smoothSolver:  Solving for epsilon, Initial residual = 0.124721, Final residual = 1.79452e-06, No Iterations 4
smoothSolver:  Solving for k, Initial residual = 0.398756, Final residual = 2.8269e-06, No Iterations 5
ExecutionTime = 0.25 s  ClockTime = 0 s

Courant Number mean: 0.662199 max: 1.85508
deltaT = 0.00579604
Time = 0.0304475

PIMPLE: iteration 1
smoothSolver:  Solving for Ux, Initial residual = 0.089117, Final residual = 3.93204e-06, No Iterations 6
smoothSolver:  Solving for Uy, Initial residual = 0.139447, Final residual = 3.23956e-06, No Iterations 7
smoothSolver:  Solving for Uz, Initial residual = 0.248602, Final residual = 4.15197e-06, No Iterations 7
GAMG:  Solving for p, Initial residual = 0.0123502, Final residual = 0.000118702, No Iterations 4
time step continuity errors : sum local = 4.8912e-05, global = -1.66478e-05, cumulative = -2.48238e-07
GAMG:  Solving for p, Initial residual = 0.00415165, Final residual = 6.02864e-07, No Iterations 8
time step continuity errors : sum local = 2.50381e-07, global = 3.3979e-08, cumulative = -2.14259e-07
smoothSolver:  Solving for epsilon, Initial residual = 0.0964267, Final residual = 6.64425e-06, No Iterations 5
smoothSolver:  Solving for k, Initial residual = 0.386818, Final residual = 9.87238e-06, No Iterations 6
ExecutionTime = 0.27 s  ClockTime = 0 s

Courant Number mean: 0.934335 max: 2.61013
deltaT = 0.00695525
Time = 0.0374028

PIMPLE: iteration 1
smoothSolver:  Solving for Ux, Initial residual = 0.0826179, Final residual = 4.09258e-06, No Iterations 7
smoothSolver:  Solving for Uy, Initial residual = 0.120006, Final residual = 3.46555e-06, No Iterations 7
smoothSolver:  Solving for Uz, Initial residual = 0.22385, Final residual = 5.91453e-06, No Iterations 7
GAMG:  Solving for p, Initial residual = 0.0251616, Final residual = 0.000135304, No Iterations 5
time step continuity errors : sum local = 6.85909e-05, global = 5.84676e-06, cumulative = 5.6325e-06
GAMG:  Solving for p, Initial residual = 0.0095789, Final residual = 9.46154e-07, No Iterations 8
time step continuity errors : sum local = 4.80865e-07, global = 1.39847e-07, cumulative = 5.77235e-06
smoothSolver:  Solving for epsilon, Initial residual = 0.0733423, Final residual = 7.86214e-06, No Iterations 5
smoothSolver:  Solving for k, Initial residual = 0.351663, Final residual = 2.9264e-06, No Iterations 7
ExecutionTime = 0.3 s  ClockTime = 0 s

Courant Number mean: 1.33276 max: 3.71796
deltaT = 0.00782466
Time = 0.0452274

PIMPLE: iteration 1
smoothSolver:  Solving for Ux, Initial residual = 0.0675078, Final residual = 9.41928e-06, No Iterations 7
smoothSolver:  Solving for Uy, Initial residual = 0.0957155, Final residual = 5.4699e-06, No Iterations 7
smoothSolver:  Solving for Uz, Initial residual = 0.240228, Final residual = 5.00622e-06, No Iterations 7
GAMG:  Solving for p, Initial residual = 0.0365228, Final residual = 0.000204156, No Iterations 4
time step continuity errors : sum local = 0.000116277, global = -7.53519e-05, cumulative = -6.95796e-05
GAMG:  Solving for p, Initial residual = 0.0143256, Final residual = 4.75355e-07, No Iterations 8
time step continuity errors : sum local = 2.72224e-07, global = 8.4449e-08, cumulative = -6.94951e-05
smoothSolver:  Solving for epsilon, Initial residual = 0.0569284, Final residual = 2.65062e-06, No Iterations 6
smoothSolver:  Solving for k, Initial residual = 0.284021, Final residual = 2.80393e-06, No Iterations 8
ExecutionTime = 0.32 s  ClockTime = 0 s

Courant Number mean: 1.72314 max: 4.81953
deltaT = 0.00782466
Time = 0.0530521

PIMPLE: iteration 1
smoothSolver:  Solving for Ux, Initial residual = 0.0554128, Final residual = 8.87103e-06, No Iterations 7
smoothSolver:  Solving for Uy, Initial residual = 0.0778726, Final residual = 4.86785e-06, No Iterations 7
smoothSolver:  Solving for Uz, Initial residual = 0.248994, Final residual = 4.85181e-06, No Iterations 7
GAMG:  Solving for p, Initial residual = 0.0440045, Final residual = 0.000417542, No Iterations 3
time step continuity errors : sum local = 0.000223344, global = 0.000143938, cumulative = 7.44429e-05
GAMG:  Solving for p, Initial residual = 0.015236, Final residual = 2.08071e-07, No Iterations 9
time step continuity errors : sum local = 1.14616e-07, global = -4.73698e-08, cumulative = 7.43955e-05
smoothSolver:  Solving for epsilon, Initial residual = 0.0404145, Final residual = 6.73201e-06, No Iterations 5
smoothSolver:  Solving for k, Initial residual = 0.211455, Final residual = 6.83392e-06, No Iterations 7
ExecutionTime = 0.34 s  ClockTime = 0 s

Courant Number mean: 1.94335 max: 5.39184
deltaT = 0.00782466
Time = 0.0608767

PIMPLE: iteration 1
smoothSolver:  Solving for Ux, Initial residual = 0.0511658, Final residual = 7.51831e-06, No Iterations 7
smoothSolver:  Solving for Uy, Initial residual = 0.0626832, Final residual = 5.50598e-06, No Iterations 7
smoothSolver:  Solving for Uz, Initial residual = 0.240644, Final residual = 5.91022e-06, No Iterations 7
GAMG:  Solving for p, Initial residual = 0.0482284, Final residual = 0.000355205, No Iterations 3
time step continuity errors : sum local = 0.000187404, global = 2.65708e-05, cumulative = 0.000100966
GAMG:  Solving for p, Initial residual = 0.016961, Final residual = 5.41412e-07, No Iterations 8
time step continuity errors : sum local = 2.895e-07, global = 3.16385e-08, cumulative = 0.000100998
smoothSolver:  Solving for epsilon, Initial residual = 0.0297801, Final residual = 6.60771e-06, No Iterations 5
smoothSolver:  Solving for k, Initial residual = 0.152118, Final residual = 6.75494e-06, No Iterations 7
ExecutionTime = 0.37 s  ClockTime = 0 s

Courant Number mean: 2.14463 max: 5.95397
deltaT = 0.00652055
Time = 0.0673973

PIMPLE: iteration 1
smoothSolver:  Solving for Ux, Initial residual = 0.0404104, Final residual = 5.45852e-06, No Iterations 7
smoothSolver:  Solving for Uy, Initial residual = 0.0463422, Final residual = 3.77146e-06, No Iterations 7
smoothSolver:  Solving for Uz, Initial residual = 0.230786, Final residual = 4.72741e-06, No Iterations 7
GAMG:  Solving for p, Initial residual = 0.047098, Final residual = 0.000264614, No Iterations 3
time step continuity errors : sum local = 0.000103749, global = 1.7874e-05, cumulative = 0.000118872
GAMG:  Solving for p, Initial residual = 0.016408, Final residual = 5.44191e-07, No Iterations 9
time step continuity errors : sum local = 2.15634e-07, global = -3.06286e-08, cumulative = 0.000118841
smoothSolver:  Solving for epsilon, Initial residual = 0.0203198, Final residual = 4.3987e-06, No Iterations 5
smoothSolver:  Solving for k, Initial residual = 0.105571, Final residual = 5.04149e-06, No Iterations 7
ExecutionTime = 0.41 s  ClockTime = 0 s

Courant Number mean: 1.92278 max: 5.33831
deltaT = 0.00652055
Time = 0.0739178

PIMPLE: iteration 1
smoothSolver:  Solving for Ux, Initial residual = 0.0356838, Final residual = 4.70329e-06, No Iterations 7
smoothSolver:  Solving for Uy, Initial residual = 0.0390209, Final residual = 3.74343e-06, No Iterations 7
smoothSolver:  Solving for Uz, Initial residual = 0.213459, Final residual = 5.62583e-06, No Iterations 7
GAMG:  Solving for p, Initial residual = 0.0442692, Final residual = 0.000367364, No Iterations 3
time step continuity errors : sum local = 0.000137148, global = 4.84735e-05, cumulative = 0.000167315
GAMG:  Solving for p, Initial residual = 0.0153591, Final residual = 6.70172e-07, No Iterations 9
time step continuity errors : sum local = 2.54696e-07, global = 1.41004e-08, cumulative = 0.000167329
smoothSolver:  Solving for epsilon, Initial residual = 0.0176656, Final residual = 5.28784e-06, No Iterations 5
smoothSolver:  Solving for k, Initial residual = 0.0800011, Final residual = 5.61058e-06, No Iterations 7
ExecutionTime = 0.43 s  ClockTime = 0 s

Courant Number mean: 2.04966 max: 5.7397
deltaT = 0.00521644
Time = 0.0791343

PIMPLE: iteration 1
smoothSolver:  Solving for Ux, Initial residual = 0.0290347, Final residual = 3.7581e-06, No Iterations 7
smoothSolver:  Solving for Uy, Initial residual = 0.0299265, Final residual = 9.49625e-06, No Iterations 6
smoothSolver:  Solving for Uz, Initial residual = 0.19419, Final residual = 6.05808e-06, No Iterations 7
GAMG:  Solving for p, Initial residual = 0.0429867, Final residual = 0.000177301, No Iterations 3
time step continuity errors : sum local = 4.83066e-05, global = -4.44453e-07, cumulative = 0.000166884
GAMG:  Solving for p, Initial residual = 0.0142952, Final residual = 4.94524e-07, No Iterations 8
time step continuity errors : sum local = 1.35607e-07, global = -6.1001e-08, cumulative = 0.000166823
smoothSolver:  Solving for epsilon, Initial residual = 0.0112729, Final residual = 4.37584e-06, No Iterations 5
smoothSolver:  Solving for k, Initial residual = 0.0585468, Final residual = 3.77828e-06, No Iterations 7
ExecutionTime = 0.45 s  ClockTime = 0 s

Courant Number mean: 1.72042 max: 4.81357
deltaT = 0.00521644
Time = 0.0843507

PIMPLE: iteration 1
smoothSolver:  Solving for Ux, Initial residual = 0.026734, Final residual = 3.50228e-06, No Iterations 7
smoothSolver:  Solving for Uy, Initial residual = 0.0271249, Final residual = 9.33347e-06, No Iterations 6
smoothSolver:  Solving for Uz, Initial residual = 0.17967, Final residual = 5.75444e-06, No Iterations 7
GAMG:  Solving for p, Initial residual = 0.0363051, Final residual = 0.000283334, No Iterations 3
time step continuity errors : sum local = 7.77356e-05, global = 2.99959e-05, cumulative = 0.000196819
GAMG:  Solving for p, Initial residual = 0.0115419, Final residual = 4.86414e-07, No Iterations 8
time step continuity errors : sum local = 1.34926e-07, global = -6.59604e-08, cumulative = 0.000196753
smoothSolver:  Solving for epsilon, Initial residual = 0.0123382, Final residual = 5.01356e-06, No Iterations 5
smoothSolver:  Solving for k, Initial residual = 0.0499818, Final residual = 3.92956e-06, No Iterations 7
ExecutionTime = 0.48 s  ClockTime = 0 s

Courant Number mean: 1.799 max: 5.07435
deltaT = 0.00521644
Time = 0.0895671

PIMPLE: iteration 1
smoothSolver:  Solving for Ux, Initial residual = 0.0244937, Final residual = 3.89199e-06, No Iterations 7
smoothSolver:  Solving for Uy, Initial residual = 0.0230157, Final residual = 3.04417e-06, No Iterations 7
smoothSolver:  Solving for Uz, Initial residual = 0.167109, Final residual = 7.22291e-06, No Iterations 7
GAMG:  Solving for p, Initial residual = 0.0378196, Final residual = 0.000287786, No Iterations 3
time step continuity errors : sum local = 7.77487e-05, global = 1.02593e-05, cumulative = 0.000207013
GAMG:  Solving for p, Initial residual = 0.0125301, Final residual = 7.05906e-07, No Iterations 8
time step continuity errors : sum local = 1.91464e-07, global = -5.72286e-09, cumulative = 0.000207007
smoothSolver:  Solving for epsilon, Initial residual = 0.00800511, Final residual = 6.36994e-06, No Iterations 5
smoothSolver:  Solving for k, Initial residual = 0.0445372, Final residual = 4.74125e-06, No Iterations 7
ExecutionTime = 0.49 s  ClockTime = 0 s

Courant Number mean: 1.86799 max: 5.29493
deltaT = 0.00521644
Time = 0.0947836

PIMPLE: iteration 1
smoothSolver:  Solving for Ux, Initial residual = 0.0224015, Final residual = 3.4793e-06, No Iterations 7
smoothSolver:  Solving for Uy, Initial residual = 0.0210745, Final residual = 3.3095e-06, No Iterations 7
smoothSolver:  Solving for Uz, Initial residual = 0.151485, Final residual = 6.88466e-06, No Iterations 7
GAMG:  Solving for p, Initial residual = 0.0372529, Final residual = 0.000228187, No Iterations 3
time step continuity errors : sum local = 6.04144e-05, global = 2.62154e-05, cumulative = 0.000233222
GAMG:  Solving for p, Initial residual = 0.0115269, Final residual = 4.66139e-07, No Iterations 8
time step continuity errors : sum local = 1.24708e-07, global = -6.66132e-08, cumulative = 0.000233156
smoothSolver:  Solving for epsilon, Initial residual = 0.0100485, Final residual = 7.4146e-06, No Iterations 5
smoothSolver:  Solving for k, Initial residual = 0.0420813, Final residual = 4.52768e-06, No Iterations 7
ExecutionTime = 0.51 s  ClockTime = 0 s

Courant Number mean: 1.93452 max: 5.49526
deltaT = 0.00521644
Time = 0.1

PIMPLE: iteration 1
smoothSolver:  Solving for Ux, Initial residual = 0.0211202, Final residual = 4.09238e-06, No Iterations 7
smoothSolver:  Solving for Uy, Initial residual = 0.0187408, Final residual = 3.26286e-06, No Iterations 7
smoothSolver:  Solving for Uz, Initial residual = 0.145838, Final residual = 8.77882e-06, No Iterations 7
GAMG:  Solving for p, Initial residual = 0.0390155, Final residual = 0.000216725, No Iterations 3
time step continuity errors : sum local = 5.72759e-05, global = 6.79888e-06, cumulative = 0.000239955
GAMG:  Solving for p, Initial residual = 0.0122678, Final residual = 4.79957e-07, No Iterations 8
time step continuity errors : sum local = 1.27247e-07, global = -5.59231e-08, cumulative = 0.000239899
smoothSolver:  Solving for epsilon, Initial residual = 0.00733024, Final residual = 8.74371e-06, No Iterations 5
smoothSolver:  Solving for k, Initial residual = 0.0400605, Final residual = 5.0743e-06, No Iterations 7
ExecutionTime = 0.55 s  ClockTime = 0 s

Courant Number mean: 1.99602 max: 5.70767
deltaT = 0.00454545
Time = 0.104545

PIMPLE: iteration 1
smoothSolver:  Solving for Ux, Initial residual = 0.0189151, Final residual = 8.47623e-06, No Iterations 6
smoothSolver:  Solving for Uy, Initial residual = 0.0163173, Final residual = 7.44301e-06, No Iterations 6
smoothSolver:  Solving for Uz, Initial residual = 0.140683, Final residual = 6.89801e-06, No Iterations 7
GAMG:  Solving for p, Initial residual = 0.0372038, Final residual = 0.000158039, No Iterations 3
time step continuity errors : sum local = 3.50583e-05, global = 4.94086e-06, cumulative = 0.00024484
GAMG:  Solving for p, Initial residual = 0.0109951, Final residual = 4.42714e-07, No Iterations 8
time step continuity errors : sum local = 9.85701e-08, global = -6.34085e-08, cumulative = 0.000244776
smoothSolver:  Solving for epsilon, Initial residual = 0.00884613, Final residual = 9.47903e-06, No Iterations 5
smoothSolver:  Solving for k, Initial residual = 0.0362756, Final residual = 4.13425e-06, No Iterations 7
ExecutionTime = 0.57 s  ClockTime = 0 s

Courant Number mean: 1.78643 max: 5.11992
deltaT = 0.00433884
Time = 0.108884

PIMPLE: iteration 1
smoothSolver:  Solving for Ux, Initial residual = 0.0172967, Final residual = 8.92492e-06, No Iterations 6
smoothSolver:  Solving for Uy, Initial residual = 0.0147835, Final residual = 7.73155e-06, No Iterations 6
smoothSolver:  Solving for Uz, Initial residual = 0.127405, Final residual = 7.13248e-06, No Iterations 7
GAMG:  Solving for p, Initial residual = 0.0347887, Final residual = 0.000216855, No Iterations 3
time step continuity errors : sum local = 4.35013e-05, global = 1.10204e-05, cumulative = 0.000255797
GAMG:  Solving for p, Initial residual = 0.0101602, Final residual = 5.58257e-07, No Iterations 8
time step continuity errors : sum local = 1.12682e-07, global = -5.19008e-08, cumulative = 0.000255745
smoothSolver:  Solving for epsilon, Initial residual = 0.00774377, Final residual = 2.96184e-06, No Iterations 6
smoothSolver:  Solving for k, Initial residual = 0.0345145, Final residual = 4.40028e-06, No Iterations 7
ExecutionTime = 0.61 s  ClockTime = 0 s

Courant Number mean: 1.74672 max: 5.02973
deltaT = 0.00433884
Time = 0.113223

PIMPLE: iteration 1
smoothSolver:  Solving for Ux, Initial residual = 0.0162426, Final residual = 8.48522e-06, No Iterations 6
smoothSolver:  Solving for Uy, Initial residual = 0.0136853, Final residual = 6.79246e-06, No Iterations 6
smoothSolver:  Solving for Uz, Initial residual = 0.117133, Final residual = 7.77933e-06, No Iterations 7
GAMG:  Solving for p, Initial residual = 0.0331671, Final residual = 0.00013463, No Iterations 3
time step continuity errors : sum local = 2.69626e-05, global = 6.37008e-06, cumulative = 0.000262115
GAMG:  Solving for p, Initial residual = 0.00952479, Final residual = 4.27262e-07, No Iterations 8
time step continuity errors : sum local = 8.60513e-08, global = -5.20378e-08, cumulative = 0.000262063
smoothSolver:  Solving for epsilon, Initial residual = 0.00841047, Final residual = 3.34644e-06, No Iterations 6
smoothSolver:  Solving for k, Initial residual = 0.0339179, Final residual = 4.08684e-06, No Iterations 7
ExecutionTime = 0.63 s  ClockTime = 0 s

Courant Number mean: 1.78577 max: 5.16084
deltaT = 0.00413223
Time = 0.117355

PIMPLE: iteration 1
smoothSolver:  Solving for Ux, Initial residual = 0.0153296, Final residual = 8.08196e-06, No Iterations 6
smoothSolver:  Solving for Uy, Initial residual = 0.0127496, Final residual = 7.37402e-06, No Iterations 6
smoothSolver:  Solving for Uz, Initial residual = 0.113169, Final residual = 7.91068e-06, No Iterations 7
GAMG:  Solving for p, Initial residual = 0.0332792, Final residual = 0.000187993, No Iterations 3
time step continuity errors : sum local = 3.58812e-05, global = 5.00734e-06, cumulative = 0.00026707
GAMG:  Solving for p, Initial residual = 0.00939926, Final residual = 6.25922e-07, No Iterations 7
time step continuity errors : sum local = 1.19839e-07, global = 3.05436e-08, cumulative = 0.000267101
smoothSolver:  Solving for epsilon, Initial residual = 0.00912777, Final residual = 3.74877e-06, No Iterations 6
smoothSolver:  Solving for k, Initial residual = 0.0325841, Final residual = 4.28158e-06, No Iterations 7
ExecutionTime = 0.64 s  ClockTime = 0 s

Courant Number mean: 1.7347 max: 5.02439
deltaT = 0.00413223
Time = 0.121488

PIMPLE: iteration 1
smoothSolver:  Solving for Ux, Initial residual = 0.0145983, Final residual = 7.96732e-06, No Iterations 6
smoothSolver:  Solving for Uy, Initial residual = 0.012466, Final residual = 6.69585e-06, No Iterations 6
smoothSolver:  Solving for Uz, Initial residual = 0.105221, Final residual = 7.87775e-06, No Iterations 7
GAMG:  Solving for p, Initial residual = 0.0337791, Final residual = 0.000148519, No Iterations 3
time step continuity errors : sum local = 2.74006e-05, global = 1.00588e-05, cumulative = 0.000277159
GAMG:  Solving for p, Initial residual = 0.00911319, Final residual = 4.33839e-07, No Iterations 8
time step continuity errors : sum local = 8.04928e-08, global = -5.53892e-09, cumulative = 0.000277154
smoothSolver:  Solving for epsilon, Initial residual = 0.00930041, Final residual = 3.96783e-06, No Iterations 6
smoothSolver:  Solving for k, Initial residual = 0.0322038, Final residual = 4.21737e-06, No Iterations 7
ExecutionTime = 0.67 s  ClockTime = 0 s

Courant Number mean: 1.76715 max: 5.13479
deltaT = 0.00392562
Time = 0.125413

PIMPLE: iteration 1
smoothSolver:  Solving for Ux, Initial residual = 0.0135779, Final residual = 6.8977e-06, No Iterations 6
smoothSolver:  Solving for Uy, Initial residual = 0.0115965, Final residual = 6.39787e-06, No Iterations 6
smoothSolver:  Solving for Uz, Initial residual = 0.102362, Final residual = 7.01088e-06, No Iterations 7
GAMG:  Solving for p, Initial residual = 0.0335855, Final residual = 0.000189438, No Iterations 3
time step continuity errors : sum local = 3.26585e-05, global = 3.34342e-06, cumulative = 0.000280497
GAMG:  Solving for p, Initial residual = 0.00927002, Final residual = 6.2188e-07, No Iterations 8
time step continuity errors : sum local = 1.07524e-07, global = -1.17258e-08, cumulative = 0.000280486
smoothSolver:  Solving for epsilon, Initial residual = 0.010323, Final residual = 4.13741e-06, No Iterations 6
smoothSolver:  Solving for k, Initial residual = 0.0315645, Final residual = 4.16037e-06, No Iterations 7
ExecutionTime = 0.69 s  ClockTime = 1 s

Courant Number mean: 1.70677 max: 4.96401
deltaT = 0.00392562
Time = 0.129339

PIMPLE: iteration 1
smoothSolver:  Solving for Ux, Initial residual = 0.0130538, Final residual = 7.11118e-06, No Iterations 6
smoothSolver:  Solving for Uy, Initial residual = 0.0113401, Final residual = 6.31743e-06, No Iterations 6
smoothSolver:  Solving for Uz, Initial residual = 0.0920669, Final residual = 7.07077e-06, No Iterations 7
GAMG:  Solving for p, Initial residual = 0.0307027, Final residual = 0.000143359, No Iterations 3
time step continuity errors : sum local = 2.56446e-05, global = 5.53026e-06, cumulative = 0.000286016
GAMG:  Solving for p, Initial residual = 0.00806275, Final residual = 7.42326e-07, No Iterations 7
time step continuity errors : sum local = 1.3308e-07, global = 5.25061e-08, cumulative = 0.000286068
smoothSolver:  Solving for epsilon, Initial residual = 0.0106844, Final residual = 4.51648e-06, No Iterations 6
smoothSolver:  Solving for k, Initial residual = 0.0316298, Final residual = 4.23994e-06, No Iterations 7
ExecutionTime = 0.71 s  ClockTime = 1 s

Courant Number mean: 1.73377 max: 5.05911
deltaT = 0.00392562
Time = 0.133264

PIMPLE: iteration 1
smoothSolver:  Solving for Ux, Initial residual = 0.0124223, Final residual = 6.64566e-06, No Iterations 6
smoothSolver:  Solving for Uy, Initial residual = 0.0108191, Final residual = 6.3928e-06, No Iterations 6
smoothSolver:  Solving for Uz, Initial residual = 0.0884015, Final residual = 7.17028e-06, No Iterations 7
GAMG:  Solving for p, Initial residual = 0.0320475, Final residual = 0.000177324, No Iterations 3
time step continuity errors : sum local = 3.07817e-05, global = 6.00394e-06, cumulative = 0.000292072
GAMG:  Solving for p, Initial residual = 0.0089106, Final residual = 7.14386e-07, No Iterations 8
time step continuity errors : sum local = 1.24366e-07, global = -1.08751e-08, cumulative = 0.000292061
smoothSolver:  Solving for epsilon, Initial residual = 0.0117433, Final residual = 4.84791e-06, No Iterations 6
smoothSolver:  Solving for k, Initial residual = 0.0319754, Final residual = 4.42511e-06, No Iterations 7
ExecutionTime = 0.74 s  ClockTime = 1 s

Courant Number mean: 1.75907 max: 5.13841
deltaT = 0.00392562
Time = 0.13719

PIMPLE: iteration 1
smoothSolver:  Solving for Ux, Initial residual = 0.0120391, Final residual = 7.17419e-06, No Iterations 6
smoothSolver:  Solving for Uy, Initial residual = 0.0105792, Final residual = 5.49361e-06, No Iterations 6
smoothSolver:  Solving for Uz, Initial residual = 0.0848584, Final residual = 6.75184e-06, No Iterations 7
GAMG:  Solving for p, Initial residual = 0.0310301, Final residual = 0.00014076, No Iterations 3
time step continuity errors : sum local = 2.48511e-05, global = 7.03321e-06, cumulative = 0.000299095
GAMG:  Solving for p, Initial residual = 0.00818558, Final residual = 4.1891e-07, No Iterations 8
time step continuity errors : sum local = 7.41519e-08, global = -1.4032e-08, cumulative = 0.000299081
smoothSolver:  Solving for epsilon, Initial residual = 0.0121768, Final residual = 5.10112e-06, No Iterations 6
smoothSolver:  Solving for k, Initial residual = 0.0315619, Final residual = 4.41524e-06, No Iterations 7
ExecutionTime = 0.78 s  ClockTime = 1 s

Courant Number mean: 1.78354 max: 5.22635
deltaT = 0.0036947
Time = 0.140885

PIMPLE: iteration 1
smoothSolver:  Solving for Ux, Initial residual = 0.0113533, Final residual = 5.81226e-06, No Iterations 6
smoothSolver:  Solving for Uy, Initial residual = 0.0100244, Final residual = 5.38152e-06, No Iterations 6
smoothSolver:  Solving for Uz, Initial residual = 0.0801206, Final residual = 5.91987e-06, No Iterations 7
GAMG:  Solving for p, Initial residual = 0.0307319, Final residual = 0.000162066, No Iterations 3
time step continuity errors : sum local = 2.59774e-05, global = 1.77016e-06, cumulative = 0.000300851
GAMG:  Solving for p, Initial residual = 0.00823462, Final residual = 6.70569e-07, No Iterations 8
time step continuity errors : sum local = 1.07591e-07, global = -7.33873e-10, cumulative = 0.00030085
smoothSolver:  Solving for epsilon, Initial residual = 0.0130222, Final residual = 5.44671e-06, No Iterations 6
smoothSolver:  Solving for k, Initial residual = 0.0312844, Final residual = 4.27382e-06, No Iterations 7
ExecutionTime = 0.8 s  ClockTime = 1 s

Courant Number mean: 1.70025 max: 4.98455
deltaT = 0.0036947
Time = 0.144579

PIMPLE: iteration 1
smoothSolver:  Solving for Ux, Initial residual = 0.0109156, Final residual = 6.35831e-06, No Iterations 6
smoothSolver:  Solving for Uy, Initial residual = 0.00979781, Final residual = 4.91104e-06, No Iterations 6
smoothSolver:  Solving for Uz, Initial residual = 0.0741658, Final residual = 6.45634e-06, No Iterations 7
GAMG:  Solving for p, Initial residual = 0.0307994, Final residual = 0.000122376, No Iterations 3
time step continuity errors : sum local = 1.95292e-05, global = 1.87455e-06, cumulative = 0.000302725
GAMG:  Solving for p, Initial residual = 0.00777011, Final residual = 4.94784e-07, No Iterations 8
time step continuity errors : sum local = 7.91969e-08, global = 1.06073e-09, cumulative = 0.000302726
smoothSolver:  Solving for epsilon, Initial residual = 0.0133848, Final residual = 5.53892e-06, No Iterations 6
smoothSolver:  Solving for k, Initial residual = 0.0314257, Final residual = 4.31966e-06, No Iterations 7
ExecutionTime = 0.83 s  ClockTime = 1 s

Courant Number mean: 1.72107 max: 5.05374
deltaT = 0.0036947
Time = 0.148274

PIMPLE: iteration 1
smoothSolver:  Solving for Ux, Initial residual = 0.0104007, Final residual = 5.82093e-06, No Iterations 6
smoothSolver:  Solving for Uy, Initial residual = 0.00949944, Final residual = 5.17455e-06, No Iterations 6
smoothSolver:  Solving for Uz, Initial residual = 0.0708475, Final residual = 5.88834e-06, No Iterations 7
GAMG:  Solving for p, Initial residual = 0.0308507, Final residual = 0.000185488, No Iterations 3
time step continuity errors : sum local = 2.93014e-05, global = 6.28206e-06, cumulative = 0.000309008
GAMG:  Solving for p, Initial residual = 0.00804439, Final residual = 5.87741e-07, No Iterations 8
time step continuity errors : sum local = 9.30517e-08, global = -1.38063e-09, cumulative = 0.000309006
smoothSolver:  Solving for epsilon, Initial residual = 0.0143675, Final residual = 5.75092e-06, No Iterations 6
smoothSolver:  Solving for k, Initial residual = 0.0318325, Final residual = 4.31212e-06, No Iterations 7
ExecutionTime = 0.85 s  ClockTime = 1 s

Courant Number mean: 1.74057 max: 5.13746
deltaT = 0.0036947
Time = 0.151969

PIMPLE: iteration 1
smoothSolver:  Solving for Ux, Initial residual = 0.0102523, Final residual = 6.4578e-06, No Iterations 6
smoothSolver:  Solving for Uy, Initial residual = 0.00924589, Final residual = 4.84133e-06, No Iterations 6
smoothSolver:  Solving for Uz, Initial residual = 0.0655389, Final residual = 6.51826e-06, No Iterations 7
GAMG:  Solving for p, Initial residual = 0.0297496, Final residual = 0.000105076, No Iterations 3
time step continuity errors : sum local = 1.72218e-05, global = -2.75177e-06, cumulative = 0.000306254
GAMG:  Solving for p, Initial residual = 0.00739005, Final residual = 5.41692e-07, No Iterations 7
time step continuity errors : sum local = 8.88145e-08, global = 1.88305e-08, cumulative = 0.000306273
smoothSolver:  Solving for epsilon, Initial residual = 0.0147015, Final residual = 5.8443e-06, No Iterations 6
smoothSolver:  Solving for k, Initial residual = 0.0313357, Final residual = 4.42347e-06, No Iterations 7
ExecutionTime = 0.87 s  ClockTime = 1 s

Courant Number mean: 1.75958 max: 5.17928
deltaT = 0.0036947
Time = 0.155664

PIMPLE: iteration 1
smoothSolver:  Solving for Ux, Initial residual = 0.00974941, Final residual = 5.94423e-06, No Iterations 6
smoothSolver:  Solving for Uy, Initial residual = 0.0091015, Final residual = 5.10568e-06, No Iterations 6
smoothSolver:  Solving for Uz, Initial residual = 0.0635554, Final residual = 5.51642e-06, No Iterations 7
GAMG:  Solving for p, Initial residual = 0.0308792, Final residual = 0.000208046, No Iterations 3
time step continuity errors : sum local = 3.27873e-05, global = 4.05396e-06, cumulative = 0.000310327
GAMG:  Solving for p, Initial residual = 0.00797646, Final residual = 6.73184e-07, No Iterations 8
time step continuity errors : sum local = 1.06251e-07, global = 1.37208e-09, cumulative = 0.000310329
smoothSolver:  Solving for epsilon, Initial residual = 0.015449, Final residual = 6.13701e-06, No Iterations 6
smoothSolver:  Solving for k, Initial residual = 0.0313978, Final residual = 4.45625e-06, No Iterations 7
ExecutionTime = 0.89 s  ClockTime = 1 s

Courant Number mean: 1.77724 max: 5.28541
deltaT = 0.00341049
Time = 0.159074

PIMPLE: iteration 1
smoothSolver:  Solving for Ux, Initial residual = 0.00924333, Final residual = 5.59624e-06, No Iterations 6
smoothSolver:  Solving for Uy, Initial residual = 0.00869759, Final residual = 4.40333e-06, No Iterations 6
smoothSolver:  Solving for Uz, Initial residual = 0.0599121, Final residual = 6.54734e-06, No Iterations 7
GAMG:  Solving for p, Initial residual = 0.0297525, Final residual = 0.000112263, No Iterations 3
time step continuity errors : sum local = 1.63915e-05, global = -1.41152e-06, cumulative = 0.000308917
GAMG:  Solving for p, Initial residual = 0.00722285, Final residual = 7.11142e-07, No Iterations 7
time step continuity errors : sum local = 1.03832e-07, global = 1.06691e-08, cumulative = 0.000308928
smoothSolver:  Solving for epsilon, Initial residual = 0.0151073, Final residual = 5.83689e-06, No Iterations 6
smoothSolver:  Solving for k, Initial residual = 0.0302003, Final residual = 4.20256e-06, No Iterations 7
ExecutionTime = 0.92 s  ClockTime = 1 s

Courant Number mean: 1.65609 max: 4.86778
deltaT = 0.00341049
Time = 0.162485

PIMPLE: iteration 1
smoothSolver:  Solving for Ux, Initial residual = 0.00884543, Final residual = 5.19604e-06, No Iterations 6
smoothSolver:  Solving for Uy, Initial residual = 0.00862566, Final residual = 4.38981e-06, No Iterations 6
smoothSolver:  Solving for Uz, Initial residual = 0.0562041, Final residual = 5.2216e-06, No Iterations 7
GAMG:  Solving for p, Initial residual = 0.0298104, Final residual = 0.000197599, No Iterations 3
time step continuity errors : sum local = 2.75709e-05, global = 7.10238e-06, cumulative = 0.00031603
GAMG:  Solving for p, Initial residual = 0.00741383, Final residual = 5.0577e-07, No Iterations 9
time step continuity errors : sum local = 7.07959e-08, global = 4.14003e-08, cumulative = 0.000316072
smoothSolver:  Solving for epsilon, Initial residual = 0.015372, Final residual = 6.10959e-06, No Iterations 6
smoothSolver:  Solving for k, Initial residual = 0.029906, Final residual = 4.21769e-06, No Iterations 7
ExecutionTime = 0.95 s  ClockTime = 1 s

Courant Number mean: 1.67092 max: 4.92817
deltaT = 0.00341049
Time = 0.165895

PIMPLE: iteration 1
smoothSolver:  Solving for Ux, Initial residual = 0.00855928, Final residual = 5.61478e-06, No Iterations 6
smoothSolver:  Solving for Uy, Initial residual = 0.00821977, Final residual = 4.42912e-06, No Iterations 6
smoothSolver:  Solving for Uz, Initial residual = 0.0545529, Final residual = 7.07157e-06, No Iterations 7
GAMG:  Solving for p, Initial residual = 0.0285109, Final residual = 0.000115122, No Iterations 3
time step continuity errors : sum local = 1.71082e-05, global = -1.11172e-06, cumulative = 0.00031496
GAMG:  Solving for p, Initial residual = 0.00693275, Final residual = 5.12897e-07, No Iterations 7
time step continuity errors : sum local = 7.61247e-08, global = -4.5018e-08, cumulative = 0.000314915
smoothSolver:  Solving for epsilon, Initial residual = 0.0153428, Final residual = 6.00536e-06, No Iterations 6
smoothSolver:  Solving for k, Initial residual = 0.0295587, Final residual = 4.19556e-06, No Iterations 7
ExecutionTime = 0.96 s  ClockTime = 1 s

Courant Number mean: 1.68516 max: 4.95319
deltaT = 0.00341049
Time = 0.169306

PIMPLE: iteration 1
smoothSolver:  Solving for Ux, Initial residual = 0.00833907, Final residual = 4.89272e-06, No Iterations 6
smoothSolver:  Solving for Uy, Initial residual = 0.00825226, Final residual = 4.14824e-06, No Iterations 6
smoothSolver:  Solving for Uz, Initial residual = 0.056269, Final residual = 5.49446e-06, No Iterations 7
GAMG:  Solving for p, Initial residual = 0.0308392, Final residual = 0.000190298, No Iterations 3
time step continuity errors : sum local = 2.65345e-05, global = 4.78073e-06, cumulative = 0.000319696
GAMG:  Solving for p, Initial residual = 0.00726892, Final residual = 8.50466e-07, No Iterations 8
time step continuity errors : sum local = 1.19013e-07, global = 1.00488e-08, cumulative = 0.000319706
smoothSolver:  Solving for epsilon, Initial residual = 0.0152951, Final residual = 6.01418e-06, No Iterations 6
smoothSolver:  Solving for k, Initial residual = 0.0292104, Final residual = 4.23288e-06, No Iterations 7
ExecutionTime = 0.98 s  ClockTime = 1 s

Courant Number mean: 1.69881 max: 5.09189
deltaT = 0.00341049
Time = 0.172716

PIMPLE: iteration 1
smoothSolver:  Solving for Ux, Initial residual = 0.00814716, Final residual = 5.47166e-06, No Iterations 6
smoothSolver:  Solving for Uy, Initial residual = 0.0079281, Final residual = 4.27569e-06, No Iterations 6
smoothSolver:  Solving for Uz, Initial residual = 0.0554768, Final residual = 7.31387e-06, No Iterations 7
GAMG:  Solving for p, Initial residual = 0.0290216, Final residual = 9.97318e-05, No Iterations 3
time step continuity errors : sum local = 1.48867e-05, global = -2.55438e-06, cumulative = 0.000317151
GAMG:  Solving for p, Initial residual = 0.00675198, Final residual = 7.00428e-07, No Iterations 7
time step continuity errors : sum local = 1.04376e-07, global = -6.33712e-08, cumulative = 0.000317088
smoothSolver:  Solving for epsilon, Initial residual = 0.0152572, Final residual = 6.0197e-06, No Iterations 6
smoothSolver:  Solving for k, Initial residual = 0.0286867, Final residual = 4.04637e-06, No Iterations 7
ExecutionTime = 1.01 s  ClockTime = 1 s

Courant Number mean: 1.71196 max: 5.06527
deltaT = 0.00341049
Time = 0.176127

PIMPLE: iteration 1
smoothSolver:  Solving for Ux, Initial residual = 0.00792174, Final residual = 4.93782e-06, No Iterations 6
smoothSolver:  Solving for Uy, Initial residual = 0.0079163, Final residual = 4.08146e-06, No Iterations 6
smoothSolver:  Solving for Uz, Initial residual = 0.0505884, Final residual = 5.45761e-06, No Iterations 7
GAMG:  Solving for p, Initial residual = 0.0314057, Final residual = 0.000183001, No Iterations 3
time step continuity errors : sum local = 2.52955e-05, global = 2.77036e-06, cumulative = 0.000319858
GAMG:  Solving for p, Initial residual = 0.00709744, Final residual = 7.76301e-07, No Iterations 8
time step continuity errors : sum local = 1.07876e-07, global = -7.69897e-09, cumulative = 0.000319851
smoothSolver:  Solving for epsilon, Initial residual = 0.0152464, Final residual = 6.0913e-06, No Iterations 6
smoothSolver:  Solving for k, Initial residual = 0.028243, Final residual = 4.09004e-06, No Iterations 7
ExecutionTime = 1.04 s  ClockTime = 1 s

Courant Number mean: 1.72449 max: 5.20846
deltaT = 0.00341049
Time = 0.179537

PIMPLE: iteration 1
smoothSolver:  Solving for Ux, Initial residual = 0.00782956, Final residual = 5.32105e-06, No Iterations 6
smoothSolver:  Solving for Uy, Initial residual = 0.00761316, Final residual = 4.08838e-06, No Iterations 6
smoothSolver:  Solving for Uz, Initial residual = 0.0483385, Final residual = 6.92293e-06, No Iterations 7
GAMG:  Solving for p, Initial residual = 0.0296003, Final residual = 0.000111101, No Iterations 3
time step continuity errors : sum local = 1.66697e-05, global = -3.15698e-06, cumulative = 0.000316694
GAMG:  Solving for p, Initial residual = 0.00687718, Final residual = 7.23456e-07, No Iterations 7
time step continuity errors : sum local = 1.08381e-07, global = -6.14963e-08, cumulative = 0.000316632
smoothSolver:  Solving for epsilon, Initial residual = 0.0153113, Final residual = 6.08652e-06, No Iterations 6
smoothSolver:  Solving for k, Initial residual = 0.0278358, Final residual = 4.04343e-06, No Iterations 7
ExecutionTime = 1.06 s  ClockTime = 1 s

Courant Number mean: 1.73686 max: 5.17578
deltaT = 0.00341049
Time = 0.182948

PIMPLE: iteration 1
smoothSolver:  Solving for Ux, Initial residual = 0.00748447, Final residual = 4.783e-06, No Iterations 6
smoothSolver:  Solving for Uy, Initial residual = 0.00754619, Final residual = 3.82738e-06, No Iterations 6
smoothSolver:  Solving for Uz, Initial residual = 0.0455547, Final residual = 5.3757e-06, No Iterations 7
GAMG:  Solving for p, Initial residual = 0.031102, Final residual = 0.000170458, No Iterations 3
time step continuity errors : sum local = 2.41468e-05, global = 1.96754e-06, cumulative = 0.0003186
GAMG:  Solving for p, Initial residual = 0.00692986, Final residual = 8.73532e-07, No Iterations 8
time step continuity errors : sum local = 1.24086e-07, global = -6.71176e-10, cumulative = 0.000318599
smoothSolver:  Solving for epsilon, Initial residual = 0.0152749, Final residual = 6.07823e-06, No Iterations 6
smoothSolver:  Solving for k, Initial residual = 0.0277061, Final residual = 4.03655e-06, No Iterations 7
ExecutionTime = 1.08 s  ClockTime = 1 s

Courant Number mean: 1.74836 max: 5.30626
deltaT = 0.00341049
Time = 0.186358

PIMPLE: iteration 1
smoothSolver:  Solving for Ux, Initial residual = 0.0074817, Final residual = 5.0567e-06, No Iterations 6
smoothSolver:  Solving for Uy, Initial residual = 0.00736835, Final residual = 3.71152e-06, No Iterations 6
smoothSolver:  Solving for Uz, Initial residual = 0.0446526, Final residual = 6.14263e-06, No Iterations 7
GAMG:  Solving for p, Initial residual = 0.0293497, Final residual = 0.000137066, No Iterations 3
time step continuity errors : sum local = 2.07076e-05, global = -1.64996e-06, cumulative = 0.000316949
GAMG:  Solving for p, Initial residual = 0.00668502, Final residual = 6.70542e-07, No Iterations 7
time step continuity errors : sum local = 1.01164e-07, global = -6.80235e-08, cumulative = 0.000316881
smoothSolver:  Solving for epsilon, Initial residual = 0.0150287, Final residual = 5.88885e-06, No Iterations 6
smoothSolver:  Solving for k, Initial residual = 0.0273228, Final residual = 3.90321e-06, No Iterations 7
ExecutionTime = 1.1 s  ClockTime = 1 s

Courant Number mean: 1.75975 max: 5.30363
deltaT = 0.00341049
Time = 0.189769

PIMPLE: iteration 1
smoothSolver:  Solving for Ux, Initial residual = 0.00725325, Final residual = 4.7756e-06, No Iterations 6
smoothSolver:  Solving for Uy, Initial residual = 0.00729954, Final residual = 3.62325e-06, No Iterations 6
smoothSolver:  Solving for Uz, Initial residual = 0.0422461, Final residual = 5.22875e-06, No Iterations 7
GAMG:  Solving for p, Initial residual = 0.0321311, Final residual = 0.000200221, No Iterations 3
time step continuity errors : sum local = 2.84713e-05, global = 2.08273e-06, cumulative = 0.000318964
GAMG:  Solving for p, Initial residual = 0.00723425, Final residual = 8.64209e-07, No Iterations 7
time step continuity errors : sum local = 1.23165e-07, global = 4.65869e-08, cumulative = 0.00031901
smoothSolver:  Solving for epsilon, Initial residual = 0.0151916, Final residual = 5.85947e-06, No Iterations 6
smoothSolver:  Solving for k, Initial residual = 0.0270044, Final residual = 3.95749e-06, No Iterations 7
ExecutionTime = 1.12 s  ClockTime = 1 s

Courant Number mean: 1.77025 max: 5.41546
deltaT = 0.00341049
Time = 0.193179

PIMPLE: iteration 1
smoothSolver:  Solving for Ux, Initial residual = 0.00719916, Final residual = 5.24288e-06, No Iterations 6
smoothSolver:  Solving for Uy, Initial residual = 0.00710678, Final residual = 3.60203e-06, No Iterations 6
smoothSolver:  Solving for Uz, Initial residual = 0.0419141, Final residual = 6.41533e-06, No Iterations 7
GAMG:  Solving for p, Initial residual = 0.029964, Final residual = 0.000129107, No Iterations 3
time step continuity errors : sum local = 1.94907e-05, global = -2.32756e-06, cumulative = 0.000316683
GAMG:  Solving for p, Initial residual = 0.00670812, Final residual = 5.77853e-07, No Iterations 7
time step continuity errors : sum local = 8.70254e-08, global = -5.96077e-08, cumulative = 0.000316623
smoothSolver:  Solving for epsilon, Initial residual = 0.0146959, Final residual = 5.78825e-06, No Iterations 6
smoothSolver:  Solving for k, Initial residual = 0.0262759, Final residual = 3.84966e-06, No Iterations 7
ExecutionTime = 1.14 s  ClockTime = 1 s

Courant Number mean: 1.78071 max: 5.42677
deltaT = 0.00341049
Time = 0.19659

PIMPLE: iteration 1
smoothSolver:  Solving for Ux, Initial residual = 0.00700934, Final residual = 4.83099e-06, No Iterations 6
smoothSolver:  Solving for Uy, Initial residual = 0.0071234, Final residual = 3.39462e-06, No Iterations 6
smoothSolver:  Solving for Uz, Initial residual = 0.0405213, Final residual = 4.97476e-06, No Iterations 7
GAMG:  Solving for p, Initial residual = 0.0317197, Final residual = 0.000204012, No Iterations 3
time step continuity errors : sum local = 2.9371e-05, global = 1.72893e-06, cumulative = 0.000318352
GAMG:  Solving for p, Initial residual = 0.00708801, Final residual = 6.89112e-07, No Iterations 8
time step continuity errors : sum local = 9.95759e-08, global = -1.25874e-08, cumulative = 0.000318339
smoothSolver:  Solving for epsilon, Initial residual = 0.0148824, Final residual = 5.66853e-06, No Iterations 6
smoothSolver:  Solving for k, Initial residual = 0.0260599, Final residual = 3.8631e-06, No Iterations 7
ExecutionTime = 1.16 s  ClockTime = 1 s

Courant Number mean: 1.79042 max: 5.5155
deltaT = 0.00341049
Time = 0.2

PIMPLE: iteration 1
smoothSolver:  Solving for Ux, Initial residual = 0.00695948, Final residual = 5.23517e-06, No Iterations 6
smoothSolver:  Solving for Uy, Initial residual = 0.00688584, Final residual = 3.47315e-06, No Iterations 6
smoothSolver:  Solving for Uz, Initial residual = 0.0403395, Final residual = 6.1403e-06, No Iterations 7
GAMG:  Solving for p, Initial residual = 0.0302217, Final residual = 0.000123005, No Iterations 3
time step continuity errors : sum local = 1.86937e-05, global = -1.87882e-06, cumulative = 0.000316461
GAMG:  Solving for p, Initial residual = 0.00664252, Final residual = 9.22094e-07, No Iterations 6
time step continuity errors : sum local = 1.39874e-07, global = 2.35525e-08, cumulative = 0.000316484
smoothSolver:  Solving for epsilon, Initial residual = 0.0142587, Final residual = 5.57065e-06, No Iterations 6
smoothSolver:  Solving for k, Initial residual = 0.0255414, Final residual = 3.71145e-06, No Iterations 7
ExecutionTime = 1.19 s  ClockTime = 1 s

Courant Number mean: 1.80016 max: 5.52391
deltaT = 0.003125
Time = 0.203125

PIMPLE: iteration 1
smoothSolver:  Solving for Ux, Initial residual = 0.00659709, Final residual = 4.42767e-06, No Iterations 6
smoothSolver:  Solving for Uy, Initial residual = 0.0067443, Final residual = 9.83351e-06, No Iterations 5
smoothSolver:  Solving for Uz, Initial residual = 0.0388253, Final residual = 4.70089e-06, No Iterations 7
GAMG:  Solving for p, Initial residual = 0.0313159, Final residual = 0.000213775, No Iterations 3
time step continuity errors : sum local = 2.77025e-05, global = -1.44411e-06, cumulative = 0.00031504
GAMG:  Solving for p, Initial residual = 0.00679668, Final residual = 5.46298e-07, No Iterations 8
time step continuity errors : sum local = 7.09748e-08, global = 8.29308e-09, cumulative = 0.000315048
smoothSolver:  Solving for epsilon, Initial residual = 0.0136454, Final residual = 5.17951e-06, No Iterations 6
smoothSolver:  Solving for k, Initial residual = 0.0244566, Final residual = 3.59491e-06, No Iterations 7
ExecutionTime = 1.21 s  ClockTime = 1 s

Courant Number mean: 1.65768 max: 5.13536
deltaT = 0.00302734
Time = 0.206152

PIMPLE: iteration 1
smoothSolver:  Solving for Ux, Initial residual = 0.00641466, Final residual = 4.48002e-06, No Iterations 6
smoothSolver:  Solving for Uy, Initial residual = 0.00646038, Final residual = 3.12569e-06, No Iterations 6
smoothSolver:  Solving for Uz, Initial residual = 0.0386014, Final residual = 5.43117e-06, No Iterations 7
GAMG:  Solving for p, Initial residual = 0.0298162, Final residual = 0.000134285, No Iterations 3
time step continuity errors : sum local = 1.71841e-05, global = -2.41287e-06, cumulative = 0.000312635
GAMG:  Solving for p, Initial residual = 0.00617905, Final residual = 7.06579e-07, No Iterations 7
time step continuity errors : sum local = 9.03083e-08, global = 4.99745e-09, cumulative = 0.00031264
smoothSolver:  Solving for epsilon, Initial residual = 0.0127892, Final residual = 4.95182e-06, No Iterations 6
smoothSolver:  Solving for k, Initial residual = 0.0235967, Final residual = 3.4169e-06, No Iterations 7
ExecutionTime = 1.24 s  ClockTime = 1 s

Courant Number mean: 1.61395 max: 4.96809
deltaT = 0.00302734
Time = 0.20918

PIMPLE: iteration 1
smoothSolver:  Solving for Ux, Initial residual = 0.00622767, Final residual = 4.07343e-06, No Iterations 6
smoothSolver:  Solving for Uy, Initial residual = 0.00643849, Final residual = 9.42964e-06, No Iterations 5
smoothSolver:  Solving for Uz, Initial residual = 0.0368734, Final residual = 4.39544e-06, No Iterations 7
GAMG:  Solving for p, Initial residual = 0.0300642, Final residual = 0.000196936, No Iterations 3
time step continuity errors : sum local = 2.47559e-05, global = 9.08679e-07, cumulative = 0.000313549
GAMG:  Solving for p, Initial residual = 0.00627719, Final residual = 7.23024e-07, No Iterations 7
time step continuity errors : sum local = 9.11153e-08, global = 3.74582e-08, cumulative = 0.000313587
smoothSolver:  Solving for epsilon, Initial residual = 0.0127534, Final residual = 4.82091e-06, No Iterations 6
smoothSolver:  Solving for k, Initial residual = 0.0232851, Final residual = 3.42618e-06, No Iterations 7
ExecutionTime = 1.26 s  ClockTime = 1 s

Courant Number mean: 1.6212 max: 5.04023
deltaT = 0.00302734
Time = 0.212207

PIMPLE: iteration 1
smoothSolver:  Solving for Ux, Initial residual = 0.0061349, Final residual = 4.50707e-06, No Iterations 6
smoothSolver:  Solving for Uy, Initial residual = 0.00629311, Final residual = 9.78174e-06, No Iterations 5
smoothSolver:  Solving for Uz, Initial residual = 0.0364991, Final residual = 5.23733e-06, No Iterations 7
GAMG:  Solving for p, Initial residual = 0.0294244, Final residual = 0.000124933, No Iterations 3
time step continuity errors : sum local = 1.61987e-05, global = -5.32515e-07, cumulative = 0.000313054
GAMG:  Solving for p, Initial residual = 0.00587986, Final residual = 6.32053e-07, No Iterations 6
time step continuity errors : sum local = 8.19254e-08, global = -5.56077e-09, cumulative = 0.000313049
smoothSolver:  Solving for epsilon, Initial residual = 0.0122336, Final residual = 4.70347e-06, No Iterations 6
smoothSolver:  Solving for k, Initial residual = 0.0227818, Final residual = 3.36912e-06, No Iterations 7
ExecutionTime = 1.29 s  ClockTime = 1 s

Courant Number mean: 1.62868 max: 5.03371
deltaT = 0.00302734
Time = 0.215234

PIMPLE: iteration 1
smoothSolver:  Solving for Ux, Initial residual = 0.00601086, Final residual = 4.04927e-06, No Iterations 6
smoothSolver:  Solving for Uy, Initial residual = 0.00622753, Final residual = 9.3542e-06, No Iterations 5
smoothSolver:  Solving for Uz, Initial residual = 0.034179, Final residual = 4.44853e-06, No Iterations 7
GAMG:  Solving for p, Initial residual = 0.0297144, Final residual = 0.000203406, No Iterations 3
time step continuity errors : sum local = 2.57167e-05, global = -1.23774e-06, cumulative = 0.000311811
GAMG:  Solving for p, Initial residual = 0.00605283, Final residual = 5.47775e-07, No Iterations 8
time step continuity errors : sum local = 6.9449e-08, global = -1.36412e-09, cumulative = 0.000311809
smoothSolver:  Solving for epsilon, Initial residual = 0.0121503, Final residual = 4.58764e-06, No Iterations 6
smoothSolver:  Solving for k, Initial residual = 0.0225986, Final residual = 3.34838e-06, No Iterations 7
ExecutionTime = 1.32 s  ClockTime = 1 s

Courant Number mean: 1.6354 max: 5.11244
deltaT = 0.00292295
Time = 0.218157

PIMPLE: iteration 1
smoothSolver:  Solving for Ux, Initial residual = 0.00596705, Final residual = 4.38928e-06, No Iterations 6
smoothSolver:  Solving for Uy, Initial residual = 0.00611753, Final residual = 9.21128e-06, No Iterations 5
smoothSolver:  Solving for Uz, Initial residual = 0.0349666, Final residual = 5.0156e-06, No Iterations 7
GAMG:  Solving for p, Initial residual = 0.0295458, Final residual = 0.000124259, No Iterations 3
time step continuity errors : sum local = 1.52249e-05, global = -1.65426e-06, cumulative = 0.000310155
GAMG:  Solving for p, Initial residual = 0.00570907, Final residual = 4.87936e-07, No Iterations 7
time step continuity errors : sum local = 5.96958e-08, global = -3.76795e-08, cumulative = 0.000310117
smoothSolver:  Solving for epsilon, Initial residual = 0.0116287, Final residual = 4.39912e-06, No Iterations 6
smoothSolver:  Solving for k, Initial residual = 0.0219091, Final residual = 3.29064e-06, No Iterations 7
ExecutionTime = 1.34 s  ClockTime = 1 s

Courant Number mean: 1.58589 max: 4.92378
deltaT = 0.00292295
Time = 0.22108

PIMPLE: iteration 1
smoothSolver:  Solving for Ux, Initial residual = 0.00576278, Final residual = 3.77248e-06, No Iterations 6
smoothSolver:  Solving for Uy, Initial residual = 0.00604785, Final residual = 8.68637e-06, No Iterations 5
smoothSolver:  Solving for Uz, Initial residual = 0.0329628, Final residual = 3.9182e-06, No Iterations 7
GAMG:  Solving for p, Initial residual = 0.028838, Final residual = 0.000208024, No Iterations 3
time step continuity errors : sum local = 2.56901e-05, global = -9.1694e-07, cumulative = 0.000309201
GAMG:  Solving for p, Initial residual = 0.00577448, Final residual = 5.67145e-07, No Iterations 8
time step continuity errors : sum local = 7.02493e-08, global = 3.47024e-08, cumulative = 0.000309235
smoothSolver:  Solving for epsilon, Initial residual = 0.0116577, Final residual = 4.30266e-06, No Iterations 6
smoothSolver:  Solving for k, Initial residual = 0.0218772, Final residual = 3.19841e-06, No Iterations 7
ExecutionTime = 1.36 s  ClockTime = 1 s

Courant Number mean: 1.59201 max: 4.99811
deltaT = 0.00292295
Time = 0.224003

PIMPLE: iteration 1
smoothSolver:  Solving for Ux, Initial residual = 0.005716, Final residual = 4.4233e-06, No Iterations 6
smoothSolver:  Solving for Uy, Initial residual = 0.00594596, Final residual = 8.78418e-06, No Iterations 5
smoothSolver:  Solving for Uz, Initial residual = 0.0331081, Final residual = 4.94898e-06, No Iterations 7
GAMG:  Solving for p, Initial residual = 0.0290626, Final residual = 0.000128784, No Iterations 3
time step continuity errors : sum local = 1.58751e-05, global = -6.15475e-07, cumulative = 0.00030862
GAMG:  Solving for p, Initial residual = 0.00563852, Final residual = 5.94914e-07, No Iterations 6
time step continuity errors : sum local = 7.33618e-08, global = -5.6351e-09, cumulative = 0.000308614
smoothSolver:  Solving for epsilon, Initial residual = 0.011375, Final residual = 4.26824e-06, No Iterations 6
smoothSolver:  Solving for k, Initial residual = 0.0215644, Final residual = 3.07468e-06, No Iterations 7
ExecutionTime = 1.38 s  ClockTime = 1 s

Courant Number mean: 1.59845 max: 4.98655
deltaT = 0.00292295
Time = 0.226926

PIMPLE: iteration 1
smoothSolver:  Solving for Ux, Initial residual = 0.00561714, Final residual = 3.6209e-06, No Iterations 6
smoothSolver:  Solving for Uy, Initial residual = 0.00587977, Final residual = 8.39449e-06, No Iterations 5
smoothSolver:  Solving for Uz, Initial residual = 0.0311379, Final residual = 3.71549e-06, No Iterations 7
GAMG:  Solving for p, Initial residual = 0.0277699, Final residual = 0.000202744, No Iterations 3
time step continuity errors : sum local = 2.52258e-05, global = 1.70748e-06, cumulative = 0.000310322
GAMG:  Solving for p, Initial residual = 0.00555707, Final residual = 5.28276e-07, No Iterations 8
time step continuity errors : sum local = 6.58281e-08, global = 3.19877e-08, cumulative = 0.000310354
smoothSolver:  Solving for epsilon, Initial residual = 0.0113268, Final residual = 4.15685e-06, No Iterations 6
smoothSolver:  Solving for k, Initial residual = 0.0214756, Final residual = 3.01922e-06, No Iterations 7
ExecutionTime = 1.4 s  ClockTime = 1 s

Courant Number mean: 1.60426 max: 5.06677
deltaT = 0.00292295
Time = 0.229849

PIMPLE: iteration 1
smoothSolver:  Solving for Ux, Initial residual = 0.00555127, Final residual = 4.28495e-06, No Iterations 6
smoothSolver:  Solving for Uy, Initial residual = 0.00584755, Final residual = 8.50698e-06, No Iterations 5
smoothSolver:  Solving for Uz, Initial residual = 0.0321842, Final residual = 4.73756e-06, No Iterations 7
GAMG:  Solving for p, Initial residual = 0.0287431, Final residual = 0.000129228, No Iterations 3
time step continuity errors : sum local = 1.60254e-05, global = 9.32865e-07, cumulative = 0.000311286
GAMG:  Solving for p, Initial residual = 0.00558197, Final residual = 7.57928e-07, No Iterations 6
time step continuity errors : sum local = 9.40784e-08, global = 6.70951e-09, cumulative = 0.000311293
smoothSolver:  Solving for epsilon, Initial residual = 0.0110252, Final residual = 4.13273e-06, No Iterations 6
smoothSolver:  Solving for k, Initial residual = 0.0211522, Final residual = 3.02788e-06, No Iterations 7
ExecutionTime = 1.42 s  ClockTime = 1 s

Courant Number mean: 1.61039 max: 5.04771
deltaT = 0.00292295
Time = 0.232772

PIMPLE: iteration 1
smoothSolver:  Solving for Ux, Initial residual = 0.00544984, Final residual = 3.64079e-06, No Iterations 6
smoothSolver:  Solving for Uy, Initial residual = 0.00574425, Final residual = 8.04338e-06, No Iterations 5
smoothSolver:  Solving for Uz, Initial residual = 0.0301347, Final residual = 3.61017e-06, No Iterations 7
GAMG:  Solving for p, Initial residual = 0.0274737, Final residual = 0.000194156, No Iterations 3
time step continuity errors : sum local = 2.43653e-05, global = -1.29097e-06, cumulative = 0.000310002
GAMG:  Solving for p, Initial residual = 0.00554187, Final residual = 5.3353e-07, No Iterations 8
time step continuity errors : sum local = 6.71054e-08, global = 1.16053e-08, cumulative = 0.000310014
smoothSolver:  Solving for epsilon, Initial residual = 0.011058, Final residual = 4.10851e-06, No Iterations 6
smoothSolver:  Solving for k, Initial residual = 0.0210113, Final residual = 9.9652e-06, No Iterations 6
ExecutionTime = 1.44 s  ClockTime = 1 s

Courant Number mean: 1.61598 max: 5.13097
deltaT = 0.00280116
Time = 0.235573

PIMPLE: iteration 1
smoothSolver:  Solving for Ux, Initial residual = 0.00538537, Final residual = 3.92973e-06, No Iterations 6
smoothSolver:  Solving for Uy, Initial residual = 0.00569214, Final residual = 8.11459e-06, No Iterations 5
smoothSolver:  Solving for Uz, Initial residual = 0.0302542, Final residual = 4.34796e-06, No Iterations 7
GAMG:  Solving for p, Initial residual = 0.0271466, Final residual = 0.00013263, No Iterations 3
time step continuity errors : sum local = 1.56211e-05, global = -2.07059e-07, cumulative = 0.000309807
GAMG:  Solving for p, Initial residual = 0.00521824, Final residual = 3.36414e-07, No Iterations 7
time step continuity errors : sum local = 3.95633e-08, global = -1.23862e-08, cumulative = 0.000309794
smoothSolver:  Solving for epsilon, Initial residual = 0.0105859, Final residual = 3.81411e-06, No Iterations 6
smoothSolver:  Solving for k, Initial residual = 0.0202748, Final residual = 9.62598e-06, No Iterations 6
ExecutionTime = 1.47 s  ClockTime = 1 s

Courant Number mean: 1.5544 max: 4.90267
deltaT = 0.00280116
Time = 0.238374

PIMPLE: iteration 1
smoothSolver:  Solving for Ux, Initial residual = 0.00518223, Final residual = 3.49064e-06, No Iterations 6
smoothSolver:  Solving for Uy, Initial residual = 0.00558204, Final residual = 7.48452e-06, No Iterations 5
smoothSolver:  Solving for Uz, Initial residual = 0.0290439, Final residual = 3.60112e-06, No Iterations 7
GAMG:  Solving for p, Initial residual = 0.0269881, Final residual = 0.000190961, No Iterations 3
time step continuity errors : sum local = 2.26089e-05, global = 8.97149e-07, cumulative = 0.000310692
GAMG:  Solving for p, Initial residual = 0.00539947, Final residual = 4.54061e-07, No Iterations 7
time step continuity errors : sum local = 5.38736e-08, global = 2.6858e-08, cumulative = 0.000310718
smoothSolver:  Solving for epsilon, Initial residual = 0.0105391, Final residual = 3.78484e-06, No Iterations 6
smoothSolver:  Solving for k, Initial residual = 0.0202106, Final residual = 9.52e-06, No Iterations 6
ExecutionTime = 1.49 s  ClockTime = 1 s

Courant Number mean: 1.55953 max: 4.97678
deltaT = 0.00280116
Time = 0.241176

PIMPLE: iteration 1
smoothSolver:  Solving for Ux, Initial residual = 0.00518476, Final residual = 3.79451e-06, No Iterations 6
smoothSolver:  Solving for Uy, Initial residual = 0.00555287, Final residual = 7.71378e-06, No Iterations 5
smoothSolver:  Solving for Uz, Initial residual = 0.0300885, Final residual = 4.42373e-06, No Iterations 7
GAMG:  Solving for p, Initial residual = 0.0272798, Final residual = 0.00012207, No Iterations 3
time step continuity errors : sum local = 1.4444e-05, global = -2.48477e-07, cumulative = 0.00031047
GAMG:  Solving for p, Initial residual = 0.00528995, Final residual = 9.03461e-07, No Iterations 6
time step continuity errors : sum local = 1.0677e-07, global = -8.02691e-09, cumulative = 0.000310462
smoothSolver:  Solving for epsilon, Initial residual = 0.0102918, Final residual = 3.73304e-06, No Iterations 6
smoothSolver:  Solving for k, Initial residual = 0.0197329, Final residual = 9.38646e-06, No Iterations 6
ExecutionTime = 1.51 s  ClockTime = 1 s

Courant Number mean: 1.56497 max: 4.96641
deltaT = 0.00280116
Time = 0.243977

PIMPLE: iteration 1
smoothSolver:  Solving for Ux, Initial residual = 0.00504386, Final residual = 3.37713e-06, No Iterations 6
smoothSolver:  Solving for Uy, Initial residual = 0.0054538, Final residual = 7.15471e-06, No Iterations 5
smoothSolver:  Solving for Uz, Initial residual = 0.0286853, Final residual = 3.50443e-06, No Iterations 7
GAMG:  Solving for p, Initial residual = 0.0275154, Final residual = 0.000180874, No Iterations 3
time step continuity errors : sum local = 2.1471e-05, global = 6.40559e-07, cumulative = 0.000311102
GAMG:  Solving for p, Initial residual = 0.00528427, Final residual = 3.80318e-07, No Iterations 8
time step continuity errors : sum local = 4.5248e-08, global = 2.03571e-08, cumulative = 0.000311123
smoothSolver:  Solving for epsilon, Initial residual = 0.0101691, Final residual = 3.61777e-06, No Iterations 6
smoothSolver:  Solving for k, Initial residual = 0.0195225, Final residual = 9.17046e-06, No Iterations 6
ExecutionTime = 1.53 s  ClockTime = 1 s

Courant Number mean: 1.56991 max: 5.0352
deltaT = 0.00280116
Time = 0.246778

PIMPLE: iteration 1
smoothSolver:  Solving for Ux, Initial residual = 0.0049987, Final residual = 4.03953e-06, No Iterations 6
smoothSolver:  Solving for Uy, Initial residual = 0.00538062, Final residual = 7.43433e-06, No Iterations 5
smoothSolver:  Solving for Uz, Initial residual = 0.0284933, Final residual = 4.16207e-06, No Iterations 7
GAMG:  Solving for p, Initial residual = 0.0285603, Final residual = 0.0001431, No Iterations 3
time step continuity errors : sum local = 1.7205e-05, global = 8.85951e-07, cumulative = 0.000312009
GAMG:  Solving for p, Initial residual = 0.00544831, Final residual = 6.15489e-07, No Iterations 7
time step continuity errors : sum local = 7.39824e-08, global = -2.02454e-08, cumulative = 0.000311988
smoothSolver:  Solving for epsilon, Initial residual = 0.00984979, Final residual = 3.55672e-06, No Iterations 6
smoothSolver:  Solving for k, Initial residual = 0.0190445, Final residual = 8.94735e-06, No Iterations 6
ExecutionTime = 1.55 s  ClockTime = 1 s

Courant Number mean: 1.57512 max: 5.0223
deltaT = 0.00280116
Time = 0.249579

PIMPLE: iteration 1
smoothSolver:  Solving for Ux, Initial residual = 0.0049101, Final residual = 3.42565e-06, No Iterations 6
smoothSolver:  Solving for Uy, Initial residual = 0.00525, Final residual = 6.90095e-06, No Iterations 5
smoothSolver:  Solving for Uz, Initial residual = 0.0278334, Final residual = 3.39302e-06, No Iterations 7
GAMG:  Solving for p, Initial residual = 0.0278223, Final residual = 0.000200176, No Iterations 3
time step continuity errors : sum local = 2.39784e-05, global = -2.8663e-07, cumulative = 0.000311702
GAMG:  Solving for p, Initial residual = 0.00528832, Final residual = 9.8553e-07, No Iterations 7
time step continuity errors : sum local = 1.18252e-07, global = 2.43503e-08, cumulative = 0.000311726
smoothSolver:  Solving for epsilon, Initial residual = 0.00977407, Final residual = 3.43231e-06, No Iterations 6
smoothSolver:  Solving for k, Initial residual = 0.0185962, Final residual = 8.99224e-06, No Iterations 6
ExecutionTime = 1.58 s  ClockTime = 1 s

Courant Number mean: 1.57979 max: 5.08304
deltaT = 0.00280116
Time = 0.25238

PIMPLE: iteration 1
smoothSolver:  Solving for Ux, Initial residual = 0.00495836, Final residual = 3.75793e-06, No Iterations 6
smoothSolver:  Solving for Uy, Initial residual = 0.00523034, Final residual = 7.08495e-06, No Iterations 5
smoothSolver:  Solving for Uz, Initial residual = 0.0272961, Final residual = 3.8208e-06, No Iterations 7
GAMG:  Solving for p, Initial residual = 0.0291617, Final residual = 0.000138985, No Iterations 3
time step continuity errors : sum local = 1.6862e-05, global = -5.15412e-07, cumulative = 0.000311211
GAMG:  Solving for p, Initial residual = 0.00558913, Final residual = 7.61641e-07, No Iterations 7
time step continuity errors : sum local = 9.23057e-08, global = -2.34993e-08, cumulative = 0.000311187
smoothSolver:  Solving for epsilon, Initial residual = 0.00938445, Final residual = 3.39904e-06, No Iterations 6
smoothSolver:  Solving for k, Initial residual = 0.018217, Final residual = 8.62186e-06, No Iterations 6
ExecutionTime = 1.61 s  ClockTime = 1 s

Courant Number mean: 1.58504 max: 5.0699
deltaT = 0.00280116
Time = 0.255181

PIMPLE: iteration 1
smoothSolver:  Solving for Ux, Initial residual = 0.00480881, Final residual = 3.38435e-06, No Iterations 6
smoothSolver:  Solving for Uy, Initial residual = 0.00518508, Final residual = 6.70913e-06, No Iterations 5
smoothSolver:  Solving for Uz, Initial residual = 0.0275875, Final residual = 3.38619e-06, No Iterations 7
GAMG:  Solving for p, Initial residual = 0.0285977, Final residual = 0.000216182, No Iterations 3
time step continuity errors : sum local = 2.61319e-05, global = 7.15652e-07, cumulative = 0.000311903
GAMG:  Solving for p, Initial residual = 0.00534146, Final residual = 9.37703e-07, No Iterations 7
time step continuity errors : sum local = 1.13723e-07, global = 1.61311e-08, cumulative = 0.000311919
smoothSolver:  Solving for epsilon, Initial residual = 0.00927244, Final residual = 3.29932e-06, No Iterations 6
smoothSolver:  Solving for k, Initial residual = 0.0177891, Final residual = 8.70778e-06, No Iterations 6
ExecutionTime = 1.62 s  ClockTime = 1 s

Courant Number mean: 1.58997 max: 5.13074
deltaT = 0.00280116
Time = 0.257983

PIMPLE: iteration 1
smoothSolver:  Solving for Ux, Initial residual = 0.00487727, Final residual = 3.71952e-06, No Iterations 6
smoothSolver:  Solving for Uy, Initial residual = 0.00512548, Final residual = 6.82143e-06, No Iterations 5
smoothSolver:  Solving for Uz, Initial residual = 0.0263052, Final residual = 3.38051e-06, No Iterations 7
GAMG:  Solving for p, Initial residual = 0.0297874, Final residual = 0.00014429, No Iterations 3
time step continuity errors : sum local = 1.77202e-05, global = -8.69337e-07, cumulative = 0.00031105
GAMG:  Solving for p, Initial residual = 0.00572488, Final residual = 7.3255e-07, No Iterations 6
time step continuity errors : sum local = 8.96901e-08, global = -1.51175e-09, cumulative = 0.000311048
smoothSolver:  Solving for epsilon, Initial residual = 0.00897383, Final residual = 3.23184e-06, No Iterations 6
smoothSolver:  Solving for k, Initial residual = 0.0172948, Final residual = 8.22149e-06, No Iterations 6
ExecutionTime = 1.65 s  ClockTime = 1 s

Courant Number mean: 1.59587 max: 5.11251
deltaT = 0.00280116
Time = 0.260784

PIMPLE: iteration 1
smoothSolver:  Solving for Ux, Initial residual = 0.00477305, Final residual = 3.33415e-06, No Iterations 6
smoothSolver:  Solving for Uy, Initial residual = 0.00502444, Final residual = 6.38812e-06, No Iterations 5
smoothSolver:  Solving for Uz, Initial residual = 0.0263446, Final residual = 3.30483e-06, No Iterations 7
GAMG:  Solving for p, Initial residual = 0.0299577, Final residual = 0.000210713, No Iterations 3
time step continuity errors : sum local = 2.56074e-05, global = 1.01718e-06, cumulative = 0.000312065
GAMG:  Solving for p, Initial residual = 0.00579099, Final residual = 8.96225e-07, No Iterations 7
time step continuity errors : sum local = 1.09316e-07, global = 1.64186e-08, cumulative = 0.000312082
smoothSolver:  Solving for epsilon, Initial residual = 0.00881737, Final residual = 3.18966e-06, No Iterations 6
smoothSolver:  Solving for k, Initial residual = 0.0169453, Final residual = 8.44301e-06, No Iterations 6
ExecutionTime = 1.68 s  ClockTime = 1 s

Courant Number mean: 1.60163 max: 5.18148
deltaT = 0.00261442
Time = 0.263398

PIMPLE: iteration 1
smoothSolver:  Solving for Ux, Initial residual = 0.00462529, Final residual = 3.36982e-06, No Iterations 6
smoothSolver:  Solving for Uy, Initial residual = 0.00495779, Final residual = 6.33586e-06, No Iterations 5
smoothSolver:  Solving for Uz, Initial residual = 0.0261024, Final residual = 3.16224e-06, No Iterations 7
GAMG:  Solving for p, Initial residual = 0.0298873, Final residual = 0.000154537, No Iterations 3
time step continuity errors : sum local = 1.73196e-05, global = -1.67548e-07, cumulative = 0.000311914
GAMG:  Solving for p, Initial residual = 0.00570267, Final residual = 7.0534e-07, No Iterations 7
time step continuity errors : sum local = 7.88389e-08, global = -4.08928e-08, cumulative = 0.000311873
smoothSolver:  Solving for epsilon, Initial residual = 0.00842349, Final residual = 3.06277e-06, No Iterations 6
smoothSolver:  Solving for k, Initial residual = 0.0161271, Final residual = 7.7278e-06, No Iterations 6
ExecutionTime = 1.7 s  ClockTime = 2 s

Courant Number mean: 1.50099 max: 4.80608
deltaT = 0.00281553
Time = 0.266214

PIMPLE: iteration 1
smoothSolver:  Solving for Ux, Initial residual = 0.00462938, Final residual = 3.40162e-06, No Iterations 6
smoothSolver:  Solving for Uy, Initial residual = 0.00492638, Final residual = 6.15608e-06, No Iterations 5
smoothSolver:  Solving for Uz, Initial residual = 0.024502, Final residual = 9.37879e-06, No Iterations 6
GAMG:  Solving for p, Initial residual = 0.0299551, Final residual = 0.000213277, No Iterations 3
time step continuity errors : sum local = 2.63134e-05, global = 2.1871e-06, cumulative = 0.00031406
GAMG:  Solving for p, Initial residual = 0.00575014, Final residual = 5.17213e-07, No Iterations 8
time step continuity errors : sum local = 6.40167e-08, global = 4.24581e-08, cumulative = 0.000314103
smoothSolver:  Solving for epsilon, Initial residual = 0.00880428, Final residual = 3.14493e-06, No Iterations 6
smoothSolver:  Solving for k, Initial residual = 0.0163423, Final residual = 8.48352e-06, No Iterations 6
ExecutionTime = 1.72 s  ClockTime = 2 s

Courant Number mean: 1.62446 max: 5.25144
deltaT = 0.00259895
Time = 0.268813

PIMPLE: iteration 1
smoothSolver:  Solving for Ux, Initial residual = 0.00453218, Final residual = 9.89677e-06, No Iterations 5
smoothSolver:  Solving for Uy, Initial residual = 0.00480806, Final residual = 6.03009e-06, No Iterations 5
smoothSolver:  Solving for Uz, Initial residual = 0.0242975, Final residual = 8.53454e-06, No Iterations 6
GAMG:  Solving for p, Initial residual = 0.0311112, Final residual = 0.000157788, No Iterations 3
time step continuity errors : sum local = 1.77394e-05, global = -1.59029e-06, cumulative = 0.000312513
GAMG:  Solving for p, Initial residual = 0.00588924, Final residual = 9.1331e-07, No Iterations 7
time step continuity errors : sum local = 1.02452e-07, global = -1.22842e-09, cumulative = 0.000312511
smoothSolver:  Solving for epsilon, Initial residual = 0.00812626, Final residual = 2.98289e-06, No Iterations 6
smoothSolver:  Solving for k, Initial residual = 0.0153936, Final residual = 7.51109e-06, No Iterations 6
ExecutionTime = 1.74 s  ClockTime = 2 s

Courant Number mean: 1.50825 max: 4.81127
deltaT = 0.00259895
Time = 0.271412

PIMPLE: iteration 1
smoothSolver:  Solving for Ux, Initial residual = 0.00443819, Final residual = 9.02747e-06, No Iterations 5
smoothSolver:  Solving for Uy, Initial residual = 0.00476138, Final residual = 5.6936e-06, No Iterations 5
smoothSolver:  Solving for Uz, Initial residual = 0.0242635, Final residual = 8.9449e-06, No Iterations 6
GAMG:  Solving for p, Initial residual = 0.0285266, Final residual = 0.000215014, No Iterations 3
[...]
time step continuity errors : sum local = 5.41986e-08, global = 2.38583e-08, cumulative = 0.000410408
smoothSolver:  Solving for epsilon, Initial residual = 0.000772578, Final residual = 2.43256e-06, No Iterations 3
smoothSolver:  Solving for k, Initial residual = 0.00123453, Final residual = 5.72761e-06, No Iterations 3
ExecutionTime = 15.84 s  ClockTime = 16 s

Courant Number mean: 2.39552 max: 4.9874
deltaT = 0.00172414
Time = 1.47069

PIMPLE: iteration 1
smoothSolver:  Solving for Ux, Initial residual = 0.000607425, Final residual = 5.96492e-06, No Iterations 3
smoothSolver:  Solving for Uy, Initial residual = 0.00120306, Final residual = 4.56855e-06, No Iterations 4
smoothSolver:  Solving for Uz, Initial residual = 0.00334274, Final residual = 4.71337e-06, No Iterations 5
GAMG:  Solving for p, Initial residual = 0.0178115, Final residual = 9.28398e-05, No Iterations 3
time step continuity errors : sum local = 9.04194e-06, global = -1.54788e-07, cumulative = 0.000410253
GAMG:  Solving for p, Initial residual = 0.00310127, Final residual = 5.47392e-07, No Iterations 6
time step continuity errors : sum local = 5.32784e-08, global = -2.06102e-08, cumulative = 0.000410232
smoothSolver:  Solving for epsilon, Initial residual = 0.000778638, Final residual = 2.7232e-06, No Iterations 3
smoothSolver:  Solving for k, Initial residual = 0.00124953, Final residual = 6.30143e-06, No Iterations 3
ExecutionTime = 15.86 s  ClockTime = 16 s

Courant Number mean: 2.39554 max: 5.02973
deltaT = 0.00172414
Time = 1.47241

PIMPLE: iteration 1
smoothSolver:  Solving for Ux, Initial residual = 0.000610035, Final residual = 5.50282e-06, No Iterations 3
smoothSolver:  Solving for Uy, Initial residual = 0.00116156, Final residual = 4.17361e-06, No Iterations 4
smoothSolver:  Solving for Uz, Initial residual = 0.0038436, Final residual = 7.17612e-06, No Iterations 5
GAMG:  Solving for p, Initial residual = 0.0181419, Final residual = 9.37395e-05, No Iterations 3
time step continuity errors : sum local = 9.18671e-06, global = 1.65146e-07, cumulative = 0.000410398
GAMG:  Solving for p, Initial residual = 0.00322373, Final residual = 5.70881e-07, No Iterations 6
time step continuity errors : sum local = 5.57779e-08, global = 2.44929e-08, cumulative = 0.000410422
smoothSolver:  Solving for epsilon, Initial residual = 0.000774822, Final residual = 2.28729e-06, No Iterations 3
smoothSolver:  Solving for k, Initial residual = 0.00123377, Final residual = 5.7793e-06, No Iterations 3
ExecutionTime = 15.88 s  ClockTime = 16 s

Courant Number mean: 2.39555 max: 4.98831
deltaT = 0.00172414
Time = 1.47414

PIMPLE: iteration 1
smoothSolver:  Solving for Ux, Initial residual = 0.000608307, Final residual = 5.97624e-06, No Iterations 3
smoothSolver:  Solving for Uy, Initial residual = 0.00120119, Final residual = 4.54938e-06, No Iterations 4
smoothSolver:  Solving for Uz, Initial residual = 0.0033443, Final residual = 4.56569e-06, No Iterations 5
GAMG:  Solving for p, Initial residual = 0.0177736, Final residual = 9.14438e-05, No Iterations 3
time step continuity errors : sum local = 8.90586e-06, global = -1.68597e-07, cumulative = 0.000410254
GAMG:  Solving for p, Initial residual = 0.00309938, Final residual = 5.66225e-07, No Iterations 6
time step continuity errors : sum local = 5.51121e-08, global = -2.07896e-08, cumulative = 0.000410233
smoothSolver:  Solving for epsilon, Initial residual = 0.000771172, Final residual = 2.76495e-06, No Iterations 3
smoothSolver:  Solving for k, Initial residual = 0.00125346, Final residual = 6.45556e-06, No Iterations 3
ExecutionTime = 15.91 s  ClockTime = 16 s

Courant Number mean: 2.39557 max: 5.02865
deltaT = 0.00172414
Time = 1.47586

PIMPLE: iteration 1
smoothSolver:  Solving for Ux, Initial residual = 0.00061019, Final residual = 5.53624e-06, No Iterations 3
smoothSolver:  Solving for Uy, Initial residual = 0.00116187, Final residual = 4.20167e-06, No Iterations 4
smoothSolver:  Solving for Uz, Initial residual = 0.00384289, Final residual = 7.16996e-06, No Iterations 5
GAMG:  Solving for p, Initial residual = 0.0180916, Final residual = 9.38063e-05, No Iterations 3
time step continuity errors : sum local = 9.19323e-06, global = 1.70364e-07, cumulative = 0.000410403
GAMG:  Solving for p, Initial residual = 0.00322865, Final residual = 5.53022e-07, No Iterations 6
time step continuity errors : sum local = 5.40335e-08, global = 2.38565e-08, cumulative = 0.000410427
smoothSolver:  Solving for epsilon, Initial residual = 0.000770615, Final residual = 2.42685e-06, No Iterations 3
smoothSolver:  Solving for k, Initial residual = 0.00123282, Final residual = 5.77937e-06, No Iterations 3
ExecutionTime = 15.93 s  ClockTime = 16 s

Courant Number mean: 2.39557 max: 4.98748
deltaT = 0.00172414
Time = 1.47759

PIMPLE: iteration 1
smoothSolver:  Solving for Ux, Initial residual = 0.00060736, Final residual = 5.96245e-06, No Iterations 3
smoothSolver:  Solving for Uy, Initial residual = 0.00120308, Final residual = 4.56789e-06, No Iterations 4
smoothSolver:  Solving for Uz, Initial residual = 0.00334108, Final residual = 4.71458e-06, No Iterations 5
GAMG:  Solving for p, Initial residual = 0.0178154, Final residual = 9.27293e-05, No Iterations 3
time step continuity errors : sum local = 9.03127e-06, global = -1.54621e-07, cumulative = 0.000410272
GAMG:  Solving for p, Initial residual = 0.0031009, Final residual = 5.47247e-07, No Iterations 6
time step continuity errors : sum local = 5.32648e-08, global = -2.05991e-08, cumulative = 0.000410252
smoothSolver:  Solving for epsilon, Initial residual = 0.000777306, Final residual = 2.67197e-06, No Iterations 3
smoothSolver:  Solving for k, Initial residual = 0.00124902, Final residual = 6.19261e-06, No Iterations 3
ExecutionTime = 15.95 s  ClockTime = 16 s

Courant Number mean: 2.39559 max: 5.0301
deltaT = 0.00172414
Time = 1.47931

PIMPLE: iteration 1
smoothSolver:  Solving for Ux, Initial residual = 0.000610186, Final residual = 5.50443e-06, No Iterations 3
smoothSolver:  Solving for Uy, Initial residual = 0.00116176, Final residual = 4.17515e-06, No Iterations 4
smoothSolver:  Solving for Uz, Initial residual = 0.00384643, Final residual = 7.18536e-06, No Iterations 5
GAMG:  Solving for p, Initial residual = 0.0181484, Final residual = 9.36172e-05, No Iterations 3
time step continuity errors : sum local = 9.17486e-06, global = 1.65379e-07, cumulative = 0.000410417
GAMG:  Solving for p, Initial residual = 0.00322346, Final residual = 5.71373e-07, No Iterations 6
time step continuity errors : sum local = 5.58269e-08, global = 2.44746e-08, cumulative = 0.000410442
smoothSolver:  Solving for epsilon, Initial residual = 0.000773959, Final residual = 2.28028e-06, No Iterations 3
smoothSolver:  Solving for k, Initial residual = 0.00123399, Final residual = 5.8174e-06, No Iterations 3
ExecutionTime = 15.97 s  ClockTime = 16 s

Courant Number mean: 2.39559 max: 4.98864
deltaT = 0.00172414
Time = 1.48103

PIMPLE: iteration 1
smoothSolver:  Solving for Ux, Initial residual = 0.000608208, Final residual = 5.97491e-06, No Iterations 3
smoothSolver:  Solving for Uy, Initial residual = 0.00120107, Final residual = 4.54437e-06, No Iterations 4
smoothSolver:  Solving for Uz, Initial residual = 0.00334255, Final residual = 4.56566e-06, No Iterations 5
GAMG:  Solving for p, Initial residual = 0.0177675, Final residual = 9.15563e-05, No Iterations 3
time step continuity errors : sum local = 8.91689e-06, global = -1.68498e-07, cumulative = 0.000410273
GAMG:  Solving for p, Initial residual = 0.00309882, Final residual = 5.67209e-07, No Iterations 6
time step continuity errors : sum local = 5.52084e-08, global = -2.08221e-08, cumulative = 0.000410252
smoothSolver:  Solving for epsilon, Initial residual = 0.000770277, Final residual = 2.73718e-06, No Iterations 3
smoothSolver:  Solving for k, Initial residual = 0.00125233, Final residual = 6.3997e-06, No Iterations 3
ExecutionTime = 16 s  ClockTime = 16 s

Courant Number mean: 2.39561 max: 5.02871
deltaT = 0.00172414
Time = 1.48276

PIMPLE: iteration 1
smoothSolver:  Solving for Ux, Initial residual = 0.00061023, Final residual = 5.54096e-06, No Iterations 3
smoothSolver:  Solving for Uy, Initial residual = 0.00116177, Final residual = 4.20181e-06, No Iterations 4
smoothSolver:  Solving for Uz, Initial residual = 0.00384246, Final residual = 7.16119e-06, No Iterations 5
GAMG:  Solving for p, Initial residual = 0.018087, Final residual = 9.38699e-05, No Iterations 3
time step continuity errors : sum local = 9.19963e-06, global = 1.70518e-07, cumulative = 0.000410423
GAMG:  Solving for p, Initial residual = 0.00322833, Final residual = 5.52644e-07, No Iterations 6
time step continuity errors : sum local = 5.39974e-08, global = 2.38664e-08, cumulative = 0.000410447
smoothSolver:  Solving for epsilon, Initial residual = 0.000770697, Final residual = 2.42064e-06, No Iterations 3
smoothSolver:  Solving for k, Initial residual = 0.00123297, Final residual = 5.80917e-06, No Iterations 3
ExecutionTime = 16.02 s  ClockTime = 16 s

Courant Number mean: 2.39562 max: 4.98758
deltaT = 0.00172414
Time = 1.48448

PIMPLE: iteration 1
smoothSolver:  Solving for Ux, Initial residual = 0.000607377, Final residual = 5.95837e-06, No Iterations 3
smoothSolver:  Solving for Uy, Initial residual = 0.00120328, Final residual = 4.5692e-06, No Iterations 4
smoothSolver:  Solving for Uz, Initial residual = 0.00334144, Final residual = 4.71639e-06, No Iterations 5
GAMG:  Solving for p, Initial residual = 0.0178156, Final residual = 9.26323e-05, No Iterations 3
time step continuity errors : sum local = 9.02191e-06, global = -1.54092e-07, cumulative = 0.000410293
GAMG:  Solving for p, Initial residual = 0.00310062, Final residual = 5.47272e-07, No Iterations 6
time step continuity errors : sum local = 5.32678e-08, global = -2.05964e-08, cumulative = 0.000410272
smoothSolver:  Solving for epsilon, Initial residual = 0.000776983, Final residual = 2.64711e-06, No Iterations 3
smoothSolver:  Solving for k, Initial residual = 0.00124835, Final residual = 6.20501e-06, No Iterations 3
ExecutionTime = 16.04 s  ClockTime = 16 s

Courant Number mean: 2.39564 max: 5.03037
deltaT = 0.00172414
Time = 1.48621

PIMPLE: iteration 1
smoothSolver:  Solving for Ux, Initial residual = 0.000610389, Final residual = 5.50726e-06, No Iterations 3
smoothSolver:  Solving for Uy, Initial residual = 0.00116177, Final residual = 4.17364e-06, No Iterations 4
smoothSolver:  Solving for Uz, Initial residual = 0.00384702, Final residual = 7.19017e-06, No Iterations 5
GAMG:  Solving for p, Initial residual = 0.0181516, Final residual = 9.35479e-05, No Iterations 3
time step continuity errors : sum local = 9.16823e-06, global = 1.65529e-07, cumulative = 0.000410438
GAMG:  Solving for p, Initial residual = 0.00322335, Final residual = 5.72151e-07, No Iterations 6
time step continuity errors : sum local = 5.59038e-08, global = 2.45018e-08, cumulative = 0.000410462
smoothSolver:  Solving for epsilon, Initial residual = 0.000773426, Final residual = 2.27864e-06, No Iterations 3
smoothSolver:  Solving for k, Initial residual = 0.00123474, Final residual = 5.82165e-06, No Iterations 3
ExecutionTime = 16.05 s  ClockTime = 16 s

Courant Number mean: 2.39564 max: 4.98886
deltaT = 0.00172414
Time = 1.48793

PIMPLE: iteration 1
smoothSolver:  Solving for Ux, Initial residual = 0.00060806, Final residual = 5.97045e-06, No Iterations 3
smoothSolver:  Solving for Uy, Initial residual = 0.00120105, Final residual = 4.54463e-06, No Iterations 4
smoothSolver:  Solving for Uz, Initial residual = 0.00334389, Final residual = 4.5678e-06, No Iterations 5
GAMG:  Solving for p, Initial residual = 0.0177636, Final residual = 9.1633e-05, No Iterations 3
time step continuity errors : sum local = 8.92445e-06, global = -1.68604e-07, cumulative = 0.000410293
GAMG:  Solving for p, Initial residual = 0.00309882, Final residual = 5.68328e-07, No Iterations 6
time step continuity errors : sum local = 5.5318e-08, global = -2.08541e-08, cumulative = 0.000410273
smoothSolver:  Solving for epsilon, Initial residual = 0.000769168, Final residual = 2.67366e-06, No Iterations 3
smoothSolver:  Solving for k, Initial residual = 0.00125197, Final residual = 6.45549e-06, No Iterations 3
ExecutionTime = 16.07 s  ClockTime = 16 s

Courant Number mean: 2.39566 max: 5.02874
deltaT = 0.00172414
Time = 1.48966

PIMPLE: iteration 1
smoothSolver:  Solving for Ux, Initial residual = 0.000610412, Final residual = 5.54681e-06, No Iterations 3
smoothSolver:  Solving for Uy, Initial residual = 0.00116155, Final residual = 4.20116e-06, No Iterations 4
smoothSolver:  Solving for Uz, Initial residual = 0.00384133, Final residual = 7.14562e-06, No Iterations 5
GAMG:  Solving for p, Initial residual = 0.0180846, Final residual = 9.38651e-05, No Iterations 3
time step continuity errors : sum local = 9.19935e-06, global = 1.70805e-07, cumulative = 0.000410443
GAMG:  Solving for p, Initial residual = 0.00322857, Final residual = 5.52094e-07, No Iterations 6
time step continuity errors : sum local = 5.39448e-08, global = 2.38413e-08, cumulative = 0.000410467
smoothSolver:  Solving for epsilon, Initial residual = 0.000764944, Final residual = 2.29953e-06, No Iterations 3
smoothSolver:  Solving for k, Initial residual = 0.001233, Final residual = 5.80289e-06, No Iterations 3
ExecutionTime = 16.09 s  ClockTime = 16 s

Courant Number mean: 2.39566 max: 4.98768
deltaT = 0.00172414
Time = 1.49138

PIMPLE: iteration 1
smoothSolver:  Solving for Ux, Initial residual = 0.000607465, Final residual = 5.954e-06, No Iterations 3
smoothSolver:  Solving for Uy, Initial residual = 0.00120328, Final residual = 4.57089e-06, No Iterations 4
smoothSolver:  Solving for Uz, Initial residual = 0.00334092, Final residual = 4.71604e-06, No Iterations 5
GAMG:  Solving for p, Initial residual = 0.0178152, Final residual = 9.27219e-05, No Iterations 3
time step continuity errors : sum local = 9.03077e-06, global = -1.5356e-07, cumulative = 0.000410314
GAMG:  Solving for p, Initial residual = 0.00309856, Final residual = 5.46587e-07, No Iterations 6
time step continuity errors : sum local = 5.32019e-08, global = -2.06166e-08, cumulative = 0.000410293
smoothSolver:  Solving for epsilon, Initial residual = 0.000767597, Final residual = 2.73677e-06, No Iterations 3
smoothSolver:  Solving for k, Initial residual = 0.00124794, Final residual = 6.29299e-06, No Iterations 3
ExecutionTime = 16.11 s  ClockTime = 16 s

Courant Number mean: 2.39568 max: 5.03063
deltaT = 0.00172414
Time = 1.4931

PIMPLE: iteration 1
smoothSolver:  Solving for Ux, Initial residual = 0.00061053, Final residual = 5.51022e-06, No Iterations 3
smoothSolver:  Solving for Uy, Initial residual = 0.00116172, Final residual = 4.17135e-06, No Iterations 4
smoothSolver:  Solving for Uz, Initial residual = 0.00384286, Final residual = 7.19698e-06, No Iterations 5
GAMG:  Solving for p, Initial residual = 0.0181569, Final residual = 9.35494e-05, No Iterations 3
time step continuity errors : sum local = 9.16849e-06, global = 1.65544e-07, cumulative = 0.000410459
GAMG:  Solving for p, Initial residual = 0.00322566, Final residual = 5.71111e-07, No Iterations 6
time step continuity errors : sum local = 5.58032e-08, global = 2.44947e-08, cumulative = 0.000410483
smoothSolver:  Solving for epsilon, Initial residual = 0.000771417, Final residual = 2.36058e-06, No Iterations 3
smoothSolver:  Solving for k, Initial residual = 0.00123305, Final residual = 5.83535e-06, No Iterations 3
ExecutionTime = 16.13 s  ClockTime = 16 s

Courant Number mean: 2.39568 max: 4.98898
deltaT = 0.00172414
Time = 1.49483

PIMPLE: iteration 1
smoothSolver:  Solving for Ux, Initial residual = 0.000606586, Final residual = 5.96739e-06, No Iterations 3
smoothSolver:  Solving for Uy, Initial residual = 0.00120175, Final residual = 4.54583e-06, No Iterations 4
smoothSolver:  Solving for Uz, Initial residual = 0.00335001, Final residual = 4.57273e-06, No Iterations 5
GAMG:  Solving for p, Initial residual = 0.0177713, Final residual = 9.1302e-05, No Iterations 3
time step continuity errors : sum local = 8.89229e-06, global = -1.70319e-07, cumulative = 0.000410313
GAMG:  Solving for p, Initial residual = 0.00310117, Final residual = 5.69405e-07, No Iterations 6
time step continuity errors : sum local = 5.5423e-08, global = -2.08261e-08, cumulative = 0.000410292
smoothSolver:  Solving for epsilon, Initial residual = 0.000767863, Final residual = 2.7395e-06, No Iterations 3
smoothSolver:  Solving for k, Initial residual = 0.0012356, Final residual = 6.52358e-06, No Iterations 3
ExecutionTime = 16.14 s  ClockTime = 16 s

Courant Number mean: 2.3957 max: 5.02892
deltaT = 0.00172414
Time = 1.49655

PIMPLE: iteration 1
smoothSolver:  Solving for Ux, Initial residual = 0.000610537, Final residual = 5.55305e-06, No Iterations 3
smoothSolver:  Solving for Uy, Initial residual = 0.00116057, Final residual = 4.19487e-06, No Iterations 4
smoothSolver:  Solving for Uz, Initial residual = 0.00383428, Final residual = 7.12811e-06, No Iterations 5
GAMG:  Solving for p, Initial residual = 0.0180881, Final residual = 9.3847e-05, No Iterations 3
time step continuity errors : sum local = 9.19762e-06, global = 1.70396e-07, cumulative = 0.000410462
GAMG:  Solving for p, Initial residual = 0.00322469, Final residual = 5.56105e-07, No Iterations 6
time step continuity errors : sum local = 5.43365e-08, global = 2.39264e-08, cumulative = 0.000410486
smoothSolver:  Solving for epsilon, Initial residual = 0.000767033, Final residual = 2.27461e-06, No Iterations 3
smoothSolver:  Solving for k, Initial residual = 0.00121473, Final residual = 5.72497e-06, No Iterations 3
ExecutionTime = 16.16 s  ClockTime = 16 s

Courant Number mean: 2.3957 max: 4.98783
deltaT = 0.00172414
Time = 1.49828

PIMPLE: iteration 1
smoothSolver:  Solving for Ux, Initial residual = 0.000608685, Final residual = 5.94904e-06, No Iterations 3
smoothSolver:  Solving for Uy, Initial residual = 0.00120274, Final residual = 4.57466e-06, No Iterations 4
smoothSolver:  Solving for Uz, Initial residual = 0.00334288, Final residual = 4.71439e-06, No Iterations 5
GAMG:  Solving for p, Initial residual = 0.0178013, Final residual = 9.29545e-05, No Iterations 3
time step continuity errors : sum local = 9.05343e-06, global = -1.5259e-07, cumulative = 0.000410334
GAMG:  Solving for p, Initial residual = 0.00310075, Final residual = 5.46105e-07, No Iterations 6
time step continuity errors : sum local = 5.31553e-08, global = -2.06143e-08, cumulative = 0.000410313
smoothSolver:  Solving for epsilon, Initial residual = 0.000774655, Final residual = 2.71563e-06, No Iterations 3
smoothSolver:  Solving for k, Initial residual = 0.00125839, Final residual = 6.4233e-06, No Iterations 3
ExecutionTime = 16.17 s  ClockTime = 16 s

Courant Number mean: 2.39572 max: 5.0301
deltaT = 0.00172414
Time = 1.5

PIMPLE: iteration 1
smoothSolver:  Solving for Ux, Initial residual = 0.000610464, Final residual = 5.51623e-06, No Iterations 3
smoothSolver:  Solving for Uy, Initial residual = 0.00116219, Final residual = 4.17379e-06, No Iterations 4
smoothSolver:  Solving for Uz, Initial residual = 0.00385215, Final residual = 7.20016e-06, No Iterations 5
GAMG:  Solving for p, Initial residual = 0.0181408, Final residual = 9.37185e-05, No Iterations 3
time step continuity errors : sum local = 9.18522e-06, global = 1.6566e-07, cumulative = 0.000410479
GAMG:  Solving for p, Initial residual = 0.00322829, Final residual = 5.68513e-07, No Iterations 6
time step continuity errors : sum local = 5.55505e-08, global = 2.4454e-08, cumulative = 0.000410503
smoothSolver:  Solving for epsilon, Initial residual = 0.00076988, Final residual = 2.25615e-06, No Iterations 3
smoothSolver:  Solving for k, Initial residual = 0.00124623, Final residual = 5.78538e-06, No Iterations 3
ExecutionTime = 16.2 s  ClockTime = 16 s

End

