/*---------------------------------------------------------------------------*\
| =========                 |                                                 |
| \\      /  F ield         | OpenFOAM: The Open Source CFD Toolbox           |
|  \\    /   O peration     | Version:                                        |
|   \\  /    A nd           | Website:  www.openfoam.com                      |
|    \\/     M anipulation  |                                                 |
\*---------------------------------------------------------------------------*/
Build  : OPENFOAM=1912 patch=200626
Arch   : "LSB;label=32;scalar=64"
Exec   : checkMesh
Date   : Mar 20 2026
Time   : 15:28:56
Host   : DESKTOP-8MPCJP1
PID    : 423
I/O    : uncollated
Case   : /root/openfoam_validation/bead1p5
nProcs : 1
trapFpe: Floating point exception trapping enabled (FOAM_SIGFPE).
fileModificationChecking : Monitoring run-time modified files using timeStampMaster (fileModificationSkew 10)
allowSystemOperations : Allowing user-supplied system call operations

// * * * * * * * * * * * * * * * * * * * * * * * * * * * * * * * * * * * * * //
Create time

Create mesh for time = 0

Time = 0

Mesh stats
    points:           6228
    faces:            14810
    internal faces:   11440
    cells:            4375
    faces per cell:   6
    boundary patches: 4
    point zones:      0
    face zones:       0
    cell zones:       0

Overall number of cells of each type:
    hexahedra:     4375
    prisms:        0
    wedges:        0
    pyramids:      0
    tet wedges:    0
    tetrahedra:    0
    polyhedra:     0

Checking topology...
    Boundary definition OK.
    Cell to face addressing OK.
    Point usage OK.
    Upper triangular ordering OK.
    Face vertices OK.
    Number of regions: 1 (OK).

Checking patch topology for multiply connected surfaces...
    Patch               Faces    Points   Surface topology                  
    inlet               25       36       ok (non-closed singly connected)  
    outlet1             30       42       ok (non-closed singly connected)  
    outlet2             30       42       ok (non-closed singly connected)  
    defaultFaces        3285     3316     ok (non-closed singly connected)  

Checking faceZone topology for multiply connected surfaces...
    No faceZones found.

Checking basic cellZone addressing...
    No cellZones found.

Checking geometry...
    Overall domain bounding box (0 -0.21 0) (0.22 0.21 0.02)
    Mesh has 3 geometric (non-empty/wedge) directions (1 1 1)
    Mesh has 3 solution (non-empty) directions (1 1 1)
    Boundary openness (-1.57306e-17 2.96125e-17 -5.5679e-17) OK.
    Max cell openness = 1.05879e-16 OK.
    Max aspect ratio = 2.66667 OK.
    Minimum face area = 6e-06. Maximum face area = 1.6e-05.  Face area magnitudes OK.
    Min volume = 2.4e-08. Max volume = 6.4e-08.  Total volume = 0.0002474.  Cell volumes OK.
    Mesh non-orthogonality Max: 0 average: 0
    Non-orthogonality check OK.
    Face pyramids OK.
    Max skewness = 1.04083e-13 OK.
    Coupled point location match (average 0) OK.

Mesh OK.

End

