/*---------------------------------------------------------------------------*\
| =========                 |                                                 |
| \\      /  F ield         | OpenFOAM: The Open Source CFD Toolbox           |
|  \\    /   O peration     | Version:                                        |
|   \\  /    A nd           | Website:  www.openfoam.com                      |
|    \\/     M anipulation  |                                                 |
\*---------------------------------------------------------------------------*/
Build  : OPENFOAM=1912 patch=200626
Arch   : "LSB;label=32;scalar=64"
Exec   : pimpleFoam
Date   : Mar 20 2026
Time   : 15:28:56
Host   : DESKTOP-8MPCJP1
PID    : 426
I/O    : uncollated
Case   : /root/openfoam_validation/bead3p0
nProcs : 1
trapFpe: Floating point exception trapping enabled (FOAM_SIGFPE).
fileModificationChecking : Monitoring run-time modified files using timeStampMaster (fileModificationSkew 10)
allowSystemOperations : Allowing user-supplied system call operations

// * * * * * * * * * * * * * * * * * * * * * * * * * * * * * * * * * * * * * //
Create time

Create mesh for time = 0


PIMPLE: Operating solver in PISO mode

Reading field p

Reading field U

Reading/calculating face flux field phi

Selecting incompressible transport model Newtonian
Selecting turbulence model type RAS
Selecting RAS turbulence model kEpsilon
RAS
{
    RASModel        kEpsilon;
    turbulence      on;
    printCoeffs     on;
    Cmu             0.09;
    C1              1.44;
    C2              1.92;
    C3              0;
    sigmak          1;
    sigmaEps        1.3;
}

No MRF models present

No finite volume options present
Courant Number mean: 0 max: 0

Starting time loop

Courant Number mean: 0 max: 0
deltaT = 0.00120482
Time = 0.00120482

PIMPLE: iteration 1
smoothSolver:  Solving for Ux, Initial residual = 1, Final residual = 9.08322e-06, No Iterations 1
smoothSolver:  Solving for Uy, Initial residual = 1, Final residual = 8.86348e-06, No Iterations 1
smoothSolver:  Solving for Uz, Initial residual = 0, Final residual = 0, No Iterations 0
GAMG:  Solving for p, Initial residual = 1, Final residual = 0.00359427, No Iterations 2
time step continuity errors : sum local = 8.41635e-05, global = -1.50458e-05, cumulative = -1.50458e-05
GAMG:  Solving for p, Initial residual = 0.00434743, Final residual = 9.60627e-07, No Iterations 10
time step continuity errors : sum local = 3.04113e-08, global = -4.95019e-09, cumulative = -1.50507e-05
smoothSolver:  Solving for epsilon, Initial residual = 0.634324, Final residual = 7.83971e-07, No Iterations 1
smoothSolver:  Solving for k, Initial residual = 1, Final residual = 8.35343e-06, No Iterations 1
ExecutionTime = 0.06 s  ClockTime = 0 s

Courant Number mean: 0.00786981 max: 0.022062
deltaT = 0.00145287
Time = 0.00265769

PIMPLE: iteration 1
smoothSolver:  Solving for Ux, Initial residual = 0.321299, Final residual = 2.57215e-07, No Iterations 2
smoothSolver:  Solving for Uy, Initial residual = 0.483406, Final residual = 3.81726e-07, No Iterations 2
smoothSolver:  Solving for Uz, Initial residual = 0.912306, Final residual = 4.6794e-07, No Iterations 2
GAMG:  Solving for p, Initial residual = 0.00200879, Final residual = 8.6405e-06, No Iterations 3
time step continuity errors : sum local = 3.74682e-07, global = -8.35587e-10, cumulative = -1.50516e-05
GAMG:  Solving for p, Initial residual = 1.57835e-05, Final residual = 5.33295e-07, No Iterations 3
time step continuity errors : sum local = 2.31489e-08, global = -3.98341e-09, cumulative = -1.50555e-05
smoothSolver:  Solving for epsilon, Initial residual = 0.498504, Final residual = 3.60199e-10, No Iterations 2
smoothSolver:  Solving for k, Initial residual = 0.591312, Final residual = 3.4681e-07, No Iterations 2
ExecutionTime = 0.09 s  ClockTime = 0 s

Courant Number mean: 0.0209131 max: 0.0585465
deltaT = 0.00173826
Time = 0.00439595

PIMPLE: iteration 1
smoothSolver:  Solving for Ux, Initial residual = 0.204303, Final residual = 3.05995e-07, No Iterations 2
smoothSolver:  Solving for Uy, Initial residual = 0.334629, Final residual = 5.51327e-07, No Iterations 2
smoothSolver:  Solving for Uz, Initial residual = 0.396257, Final residual = 3.64703e-07, No Iterations 2
GAMG:  Solving for p, Initial residual = 0.00216108, Final residual = 9.91572e-06, No Iterations 3
time step continuity errors : sum local = 5.97487e-07, global = 3.23388e-08, cumulative = -1.50232e-05
GAMG:  Solving for p, Initial residual = 2.17098e-05, Final residual = 7.1016e-07, No Iterations 3
time step continuity errors : sum local = 4.28321e-08, global = -1.25186e-08, cumulative = -1.50357e-05
smoothSolver:  Solving for epsilon, Initial residual = 0.485175, Final residual = 6.79113e-09, No Iterations 2
smoothSolver:  Solving for k, Initial residual = 0.477468, Final residual = 6.39656e-07, No Iterations 2
ExecutionTime = 0.11 s  ClockTime = 0 s

Courant Number mean: 0.0413404 max: 0.115525
deltaT = 0.00207835
Time = 0.00647429

PIMPLE: iteration 1
smoothSolver:  Solving for Ux, Initial residual = 0.15683, Final residual = 4.15217e-07, No Iterations 2
smoothSolver:  Solving for Uy, Initial residual = 0.265377, Final residual = 9.56425e-07, No Iterations 2
smoothSolver:  Solving for Uz, Initial residual = 0.313307, Final residual = 6.01737e-07, No Iterations 2
GAMG:  Solving for p, Initial residual = 0.00264107, Final residual = 1.54789e-05, No Iterations 3
time step continuity errors : sum local = 1.29836e-06, global = 6.4599e-08, cumulative = -1.49711e-05
GAMG:  Solving for p, Initial residual = 4.1935e-05, Final residual = 4.14514e-07, No Iterations 4
time step continuity errors : sum local = 3.48087e-08, global = 4.33788e-10, cumulative = -1.49707e-05
smoothSolver:  Solving for epsilon, Initial residual = 0.55511, Final residual = 9.64329e-08, No Iterations 2
smoothSolver:  Solving for k, Initial residual = 0.432319, Final residual = 1.37063e-06, No Iterations 2
ExecutionTime = 0.13 s  ClockTime = 0 s

Courant Number mean: 0.0727056 max: 0.202615
deltaT = 0.0024612
Time = 0.0089355

PIMPLE: iteration 1
smoothSolver:  Solving for Ux, Initial residual = 0.130415, Final residual = 5.91979e-07, No Iterations 2
smoothSolver:  Solving for Uy, Initial residual = 0.223801, Final residual = 2.04298e-06, No Iterations 2
smoothSolver:  Solving for Uz, Initial residual = 0.244591, Final residual = 1.28677e-06, No Iterations 2
GAMG:  Solving for p, Initial residual = 0.00324297, Final residual = 2.69482e-05, No Iterations 3
time step continuity errors : sum local = 3.0394e-06, global = 2.98476e-07, cumulative = -1.46722e-05
GAMG:  Solving for p, Initial residual = 9.68729e-05, Final residual = 7.74693e-07, No Iterations 4
time step continuity errors : sum local = 8.75029e-08, global = 6.28107e-09, cumulative = -1.46659e-05
smoothSolver:  Solving for epsilon, Initial residual = 0.689893, Final residual = 8.94047e-07, No Iterations 2
smoothSolver:  Solving for k, Initial residual = 0.416781, Final residual = 3.48602e-06, No Iterations 2
ExecutionTime = 0.15 s  ClockTime = 0 s

Courant Number mean: 0.118641 max: 0.32924
deltaT = 0.00293756
Time = 0.0118731

PIMPLE: iteration 1
smoothSolver:  Solving for Ux, Initial residual = 0.115179, Final residual = 1.35492e-06, No Iterations 2
smoothSolver:  Solving for Uy, Initial residual = 0.198166, Final residual = 7.31557e-06, No Iterations 2
smoothSolver:  Solving for Uz, Initial residual = 0.270848, Final residual = 5.01126e-06, No Iterations 2
GAMG:  Solving for p, Initial residual = 0.00402816, Final residual = 1.71664e-05, No Iterations 4
time step continuity errors : sum local = 2.60454e-06, global = -3.98681e-07, cumulative = -1.50646e-05
GAMG:  Solving for p, Initial residual = 0.000206726, Final residual = 4.90648e-07, No Iterations 6
time step continuity errors : sum local = 7.45869e-08, global = -2.26396e-09, cumulative = -1.50669e-05
smoothSolver:  Solving for epsilon, Initial residual = 0.462161, Final residual = 4.60064e-06, No Iterations 2
smoothSolver:  Solving for k, Initial residual = 0.420334, Final residual = 1.06369e-07, No Iterations 3
ExecutionTime = 0.18 s  ClockTime = 0 s

Courant Number mean: 0.187764 max: 0.518207
deltaT = 0.00352508
Time = 0.0153981

PIMPLE: iteration 1
smoothSolver:  Solving for Ux, Initial residual = 0.105595, Final residual = 5.75246e-06, No Iterations 2
smoothSolver:  Solving for Uy, Initial residual = 0.180755, Final residual = 7.84522e-07, No Iterations 3
smoothSolver:  Solving for Uz, Initial residual = 0.28823, Final residual = 5.09127e-07, No Iterations 3
GAMG:  Solving for p, Initial residual = 0.00517962, Final residual = 3.1153e-05, No Iterations 4
time step continuity errors : sum local = 6.34611e-06, global = -9.68286e-07, cumulative = -1.60352e-05
GAMG:  Solving for p, Initial residual = 0.000472269, Final residual = 5.79567e-07, No Iterations 7
time step continuity errors : sum local = 1.18402e-07, global = -2.93833e-08, cumulative = -1.60646e-05
smoothSolver:  Solving for epsilon, Initial residual = 0.252444, Final residual = 2.82056e-07, No Iterations 3
smoothSolver:  Solving for k, Initial residual = 0.42796, Final residual = 1.41171e-06, No Iterations 3
ExecutionTime = 0.19 s  ClockTime = 0 s

Courant Number mean: 0.29138 max: 0.799325
deltaT = 0.00423009
Time = 0.0196282

PIMPLE: iteration 1
smoothSolver:  Solving for Ux, Initial residual = 0.0989478, Final residual = 1.50153e-06, No Iterations 3
smoothSolver:  Solving for Uy, Initial residual = 0.167341, Final residual = 9.74029e-06, No Iterations 3
smoothSolver:  Solving for Uz, Initial residual = 0.284301, Final residual = 7.20426e-06, No Iterations 3
GAMG:  Solving for p, Initial residual = 0.00689919, Final residual = 5.60069e-05, No Iterations 4
time step continuity errors : sum local = 1.5135e-05, global = -2.45776e-06, cumulative = -1.85223e-05
GAMG:  Solving for p, Initial residual = 0.00106083, Final residual = 6.04427e-07, No Iterations 8
time step continuity errors : sum local = 1.64039e-07, global = 1.59395e-10, cumulative = -1.85222e-05
smoothSolver:  Solving for epsilon, Initial residual = 0.166745, Final residual = 2.65361e-06, No Iterations 3
smoothSolver:  Solving for k, Initial residual = 0.435035, Final residual = 1.00459e-06, No Iterations 4
ExecutionTime = 0.21 s  ClockTime = 0 s

Courant Number mean: 0.44395 max: 1.21244
deltaT = 0.00502324
Time = 0.0246515

PIMPLE: iteration 1
smoothSolver:  Solving for Ux, Initial residual = 0.0935012, Final residual = 4.29363e-06, No Iterations 4
smoothSolver:  Solving for Uy, Initial residual = 0.154739, Final residual = 2.2233e-06, No Iterations 5
smoothSolver:  Solving for Uz, Initial residual = 0.271815, Final residual = 1.85886e-06, No Iterations 5
GAMG:  Solving for p, Initial residual = 0.00939933, Final residual = 5.05662e-05, No Iterations 5
time step continuity errors : sum local = 1.70142e-05, global = 3.8449e-06, cumulative = -1.46773e-05
GAMG:  Solving for p, Initial residual = 0.00220094, Final residual = 6.67532e-07, No Iterations 9
time step continuity errors : sum local = 2.26013e-07, global = -5.64069e-08, cumulative = -1.47337e-05
smoothSolver:  Solving for epsilon, Initial residual = 0.122331, Final residual = 2.22612e-06, No Iterations 4
smoothSolver:  Solving for k, Initial residual = 0.433528, Final residual = 3.89904e-06, No Iterations 5
ExecutionTime = 0.23 s  ClockTime = 0 s

Courant Number mean: 0.658497 max: 1.79336
deltaT = 0.00579604
Time = 0.0304475

PIMPLE: iteration 1
smoothSolver:  Solving for Ux, Initial residual = 0.087184, Final residual = 3.95708e-06, No Iterations 6
smoothSolver:  Solving for Uy, Initial residual = 0.138531, Final residual = 3.53039e-06, No Iterations 7
smoothSolver:  Solving for Uz, Initial residual = 0.246569, Final residual = 4.80275e-06, No Iterations 7
GAMG:  Solving for p, Initial residual = 0.0133628, Final residual = 0.000101897, No Iterations 5
time step continuity errors : sum local = 4.17938e-05, global = 9.04598e-06, cumulative = -5.68769e-06
GAMG:  Solving for p, Initial residual = 0.00429172, Final residual = 6.27379e-07, No Iterations 10
time step continuity errors : sum local = 2.5948e-07, global = 1.935e-08, cumulative = -5.66834e-06
smoothSolver:  Solving for epsilon, Initial residual = 0.094715, Final residual = 5.97854e-06, No Iterations 5
smoothSolver:  Solving for k, Initial residual = 0.410704, Final residual = 3.71715e-06, No Iterations 7
ExecutionTime = 0.27 s  ClockTime = 0 s

Courant Number mean: 0.92835 max: 2.52145
deltaT = 0.00695525
Time = 0.0374028

PIMPLE: iteration 1
smoothSolver:  Solving for Ux, Initial residual = 0.0806886, Final residual = 3.96502e-06, No Iterations 7
smoothSolver:  Solving for Uy, Initial residual = 0.118554, Final residual = 3.79051e-06, No Iterations 7
smoothSolver:  Solving for Uz, Initial residual = 0.222688, Final residual = 5.59471e-06, No Iterations 7
GAMG:  Solving for p, Initial residual = 0.0253769, Final residual = 0.000138612, No Iterations 5
time step continuity errors : sum local = 7.13854e-05, global = 6.55567e-06, cumulative = 8.87331e-07
GAMG:  Solving for p, Initial residual = 0.00976634, Final residual = 7.30283e-07, No Iterations 10
time step continuity errors : sum local = 3.7665e-07, global = 1.07481e-07, cumulative = 9.94812e-07
smoothSolver:  Solving for epsilon, Initial residual = 0.0718813, Final residual = 7.42138e-06, No Iterations 5
smoothSolver:  Solving for k, Initial residual = 0.367416, Final residual = 4.91666e-06, No Iterations 7
ExecutionTime = 0.29 s  ClockTime = 0 s

Courant Number mean: 1.32271 max: 3.5838
deltaT = 0.00782466
Time = 0.0452274

PIMPLE: iteration 1
smoothSolver:  Solving for Ux, Initial residual = 0.0663006, Final residual = 9.11635e-06, No Iterations 7
smoothSolver:  Solving for Uy, Initial residual = 0.0952248, Final residual = 5.46819e-06, No Iterations 7
smoothSolver:  Solving for Uz, Initial residual = 0.231482, Final residual = 4.79521e-06, No Iterations 7
GAMG:  Solving for p, Initial residual = 0.0384918, Final residual = 0.000299839, No Iterations 4
time step continuity errors : sum local = 0.00017041, global = -6.04647e-05, cumulative = -5.94699e-05
GAMG:  Solving for p, Initial residual = 0.0147943, Final residual = 7.79935e-07, No Iterations 10
time step continuity errors : sum local = 4.46923e-07, global = 1.03976e-07, cumulative = -5.9366e-05
smoothSolver:  Solving for epsilon, Initial residual = 0.055317, Final residual = 2.54404e-06, No Iterations 6
smoothSolver:  Solving for k, Initial residual = 0.29663, Final residual = 2.62509e-06, No Iterations 8
ExecutionTime = 0.31 s  ClockTime = 0 s

Courant Number mean: 1.71088 max: 4.65623
deltaT = 0.00782466
Time = 0.0530521

PIMPLE: iteration 1
smoothSolver:  Solving for Ux, Initial residual = 0.0554988, Final residual = 9.15326e-06, No Iterations 7
smoothSolver:  Solving for Uy, Initial residual = 0.0784829, Final residual = 4.30384e-06, No Iterations 7
smoothSolver:  Solving for Uz, Initial residual = 0.239946, Final residual = 4.21126e-06, No Iterations 7
GAMG:  Solving for p, Initial residual = 0.0431579, Final residual = 0.000351569, No Iterations 4
time step continuity errors : sum local = 0.000189456, global = -2.09866e-05, cumulative = -8.03526e-05
GAMG:  Solving for p, Initial residual = 0.0156585, Final residual = 4.86002e-07, No Iterations 12
time step continuity errors : sum local = 2.70383e-07, global = 4.03278e-09, cumulative = -8.03485e-05
smoothSolver:  Solving for epsilon, Initial residual = 0.0383049, Final residual = 7.26218e-06, No Iterations 5
smoothSolver:  Solving for k, Initial residual = 0.215576, Final residual = 6.70374e-06, No Iterations 7
ExecutionTime = 0.34 s  ClockTime = 0 s

Courant Number mean: 1.92915 max: 5.2015
deltaT = 0.00782466
Time = 0.0608767

PIMPLE: iteration 1
smoothSolver:  Solving for Ux, Initial residual = 0.0494446, Final residual = 7.99936e-06, No Iterations 7
smoothSolver:  Solving for Uy, Initial residual = 0.0624505, Final residual = 5.66082e-06, No Iterations 7
smoothSolver:  Solving for Uz, Initial residual = 0.233176, Final residual = 4.90986e-06, No Iterations 7
GAMG:  Solving for p, Initial residual = 0.050759, Final residual = 0.000271522, No Iterations 4
time step continuity errors : sum local = 0.000142595, global = -3.07317e-05, cumulative = -0.00011108
GAMG:  Solving for p, Initial residual = 0.0184605, Final residual = 6.41044e-07, No Iterations 11
time step continuity errors : sum local = 3.42095e-07, global = -1.26513e-07, cumulative = -0.000111207
smoothSolver:  Solving for epsilon, Initial residual = 0.0281111, Final residual = 6.62507e-06, No Iterations 5
smoothSolver:  Solving for k, Initial residual = 0.149052, Final residual = 6.95465e-06, No Iterations 7
ExecutionTime = 0.36 s  ClockTime = 0 s

Courant Number mean: 2.12562 max: 5.73726
deltaT = 0.00652055
Time = 0.0673973

PIMPLE: iteration 1
smoothSolver:  Solving for Ux, Initial residual = 0.039227, Final residual = 5.70954e-06, No Iterations 7
smoothSolver:  Solving for Uy, Initial residual = 0.0461125, Final residual = 3.33891e-06, No Iterations 7
smoothSolver:  Solving for Uz, Initial residual = 0.227638, Final residual = 5.06333e-06, No Iterations 7
GAMG:  Solving for p, Initial residual = 0.0476139, Final residual = 0.000204219, No Iterations 4
time step continuity errors : sum local = 8.06658e-05, global = -1.56311e-05, cumulative = -0.000126838
GAMG:  Solving for p, Initial residual = 0.0167487, Final residual = 7.67288e-07, No Iterations 10
time step continuity errors : sum local = 3.06494e-07, global = 1.65675e-08, cumulative = -0.000126821
smoothSolver:  Solving for epsilon, Initial residual = 0.0197375, Final residual = 4.17086e-06, No Iterations 5
smoothSolver:  Solving for k, Initial residual = 0.0981912, Final residual = 4.40245e-06, No Iterations 7
ExecutionTime = 0.39 s  ClockTime = 0 s

Courant Number mean: 1.90372 max: 5.13065
deltaT = 0.00652055
Time = 0.0739178

PIMPLE: iteration 1
smoothSolver:  Solving for Ux, Initial residual = 0.0355825, Final residual = 5.78877e-06, No Iterations 7
smoothSolver:  Solving for Uy, Initial residual = 0.0386027, Final residual = 4.51723e-06, No Iterations 7
smoothSolver:  Solving for Uz, Initial residual = 0.216282, Final residual = 6.44517e-06, No Iterations 7
GAMG:  Solving for p, Initial residual = 0.0450428, Final residual = 0.000250963, No Iterations 4
time step continuity errors : sum local = 9.70721e-05, global = -1.72498e-05, cumulative = -0.000144071
GAMG:  Solving for p, Initial residual = 0.0156515, Final residual = 5.56405e-07, No Iterations 11
time step continuity errors : sum local = 2.18721e-07, global = -7.67609e-08, cumulative = -0.000144148
smoothSolver:  Solving for epsilon, Initial residual = 0.0167914, Final residual = 6.49718e-06, No Iterations 5
smoothSolver:  Solving for k, Initial residual = 0.0748083, Final residual = 5.92877e-06, No Iterations 7
ExecutionTime = 0.42 s  ClockTime = 0 s

Courant Number mean: 2.02726 max: 5.52699
deltaT = 0.00652055
Time = 0.0804384

PIMPLE: iteration 1
smoothSolver:  Solving for Ux, Initial residual = 0.0320817, Final residual = 5.32646e-06, No Iterations 7
smoothSolver:  Solving for Uy, Initial residual = 0.0326136, Final residual = 4.59579e-06, No Iterations 7
smoothSolver:  Solving for Uz, Initial residual = 0.208812, Final residual = 6.93077e-06, No Iterations 7
GAMG:  Solving for p, Initial residual = 0.0476941, Final residual = 0.000202702, No Iterations 4
time step continuity errors : sum local = 7.55583e-05, global = -1.6482e-05, cumulative = -0.00016063
GAMG:  Solving for p, Initial residual = 0.0160785, Final residual = 7.46033e-07, No Iterations 10
time step continuity errors : sum local = 2.8102e-07, global = 1.4197e-08, cumulative = -0.000160616
smoothSolver:  Solving for epsilon, Initial residual = 0.01273, Final residual = 7.20776e-06, No Iterations 5
smoothSolver:  Solving for k, Initial residual = 0.058283, Final residual = 5.39071e-06, No Iterations 7
ExecutionTime = 0.43 s  ClockTime = 0 s

Courant Number mean: 2.13842 max: 5.8376
deltaT = 0.00489041
Time = 0.0853288

PIMPLE: iteration 1
smoothSolver:  Solving for Ux, Initial residual = 0.0252278, Final residual = 3.34499e-06, No Iterations 7
smoothSolver:  Solving for Uy, Initial residual = 0.0255108, Final residual = 2.94938e-06, No Iterations 7
smoothSolver:  Solving for Uz, Initial residual = 0.183504, Final residual = 5.32921e-06, No Iterations 7
GAMG:  Solving for p, Initial residual = 0.0434597, Final residual = 0.000341289, No Iterations 3
time step continuity errors : sum local = 8.68426e-05, global = 1.20948e-05, cumulative = -0.000148521
GAMG:  Solving for p, Initial residual = 0.0130333, Final residual = 5.65628e-07, No Iterations 10
time step continuity errors : sum local = 1.44991e-07, global = -6.06715e-08, cumulative = -0.000148582
smoothSolver:  Solving for epsilon, Initial residual = 0.0104952, Final residual = 7.15197e-06, No Iterations 5
smoothSolver:  Solving for k, Initial residual = 0.0446817, Final residual = 3.87918e-06, No Iterations 7
ExecutionTime = 0.45 s  ClockTime = 0 s

Courant Number mean: 1.66982 max: 4.57179
deltaT = 0.00489041
Time = 0.0902192

PIMPLE: iteration 1
smoothSolver:  Solving for Ux, Initial residual = 0.0233688, Final residual = 3.69367e-06, No Iterations 7
smoothSolver:  Solving for Uy, Initial residual = 0.0228319, Final residual = 9.45808e-06, No Iterations 6
smoothSolver:  Solving for Uz, Initial residual = 0.17251, Final residual = 7.21644e-06, No Iterations 7
GAMG:  Solving for p, Initial residual = 0.0354866, Final residual = 0.000165587, No Iterations 4
time step continuity errors : sum local = 4.1597e-05, global = -7.75439e-06, cumulative = -0.000156336
GAMG:  Solving for p, Initial residual = 0.0106512, Final residual = 9.95666e-07, No Iterations 9
time step continuity errors : sum local = 2.52207e-07, global = -7.4603e-08, cumulative = -0.000156411
smoothSolver:  Solving for epsilon, Initial residual = 0.00952536, Final residual = 7.91508e-06, No Iterations 5
smoothSolver:  Solving for k, Initial residual = 0.040118, Final residual = 4.18976e-06, No Iterations 7
ExecutionTime = 0.47 s  ClockTime = 0 s

Courant Number mean: 1.73208 max: 4.72386
deltaT = 0.00489041
Time = 0.0951096

PIMPLE: iteration 1
smoothSolver:  Solving for Ux, Initial residual = 0.0216097, Final residual = 3.60062e-06, No Iterations 7
smoothSolver:  Solving for Uy, Initial residual = 0.0201099, Final residual = 3.07267e-06, No Iterations 7
smoothSolver:  Solving for Uz, Initial residual = 0.150365, Final residual = 7.2052e-06, No Iterations 7
GAMG:  Solving for p, Initial residual = 0.0362416, Final residual = 0.000163669, No Iterations 4
time step continuity errors : sum local = 4.05694e-05, global = -1.0959e-05, cumulative = -0.00016737
GAMG:  Solving for p, Initial residual = 0.0109258, Final residual = 6.78992e-07, No Iterations 10
time step continuity errors : sum local = 1.69357e-07, global = 2.72374e-08, cumulative = -0.000167342
smoothSolver:  Solving for epsilon, Initial residual = 0.00846936, Final residual = 8.11372e-06, No Iterations 5
smoothSolver:  Solving for k, Initial residual = 0.0374285, Final residual = 4.39471e-06, No Iterations 7
ExecutionTime = 0.49 s  ClockTime = 0 s

Courant Number mean: 1.78891 max: 4.92652
deltaT = 0.00489041
Time = 0.1

PIMPLE: iteration 1
smoothSolver:  Solving for Ux, Initial residual = 0.0200214, Final residual = 3.59394e-06, No Iterations 7
smoothSolver:  Solving for Uy, Initial residual = 0.01831, Final residual = 3.10305e-06, No Iterations 7
smoothSolver:  Solving for Uz, Initial residual = 0.150656, Final residual = 9.02368e-06, No Iterations 7
GAMG:  Solving for p, Initial residual = 0.0360408, Final residual = 0.000345374, No Iterations 3
time step continuity errors : sum local = 8.58716e-05, global = 2.04935e-05, cumulative = -0.000146849
GAMG:  Solving for p, Initial residual = 0.010483, Final residual = 8.6473e-07, No Iterations 9
time step continuity errors : sum local = 2.16452e-07, global = 1.85054e-08, cumulative = -0.00014683
smoothSolver:  Solving for epsilon, Initial residual = 0.0083105, Final residual = 9.49335e-06, No Iterations 5
smoothSolver:  Solving for k, Initial residual = 0.0358479, Final residual = 4.58586e-06, No Iterations 7
ExecutionTime = 0.52 s  ClockTime = 0 s

Courant Number mean: 1.84239 max: 5.07635
deltaT = 0.0047619
Time = 0.104762

PIMPLE: iteration 1
smoothSolver:  Solving for Ux, Initial residual = 0.0185513, Final residual = 9.56739e-06, No Iterations 6
smoothSolver:  Solving for Uy, Initial residual = 0.0165799, Final residual = 3.11341e-06, No Iterations 7
smoothSolver:  Solving for Uz, Initial residual = 0.139229, Final residual = 7.57234e-06, No Iterations 7
GAMG:  Solving for p, Initial residual = 0.0374062, Final residual = 0.000145966, No Iterations 4
time step continuity errors : sum local = 3.38686e-05, global = -5.25e-06, cumulative = -0.00015208
GAMG:  Solving for p, Initial residual = 0.0109088, Final residual = 5.72465e-07, No Iterations 10
time step continuity errors : sum local = 1.34033e-07, global = 1.50244e-08, cumulative = -0.000152065
smoothSolver:  Solving for epsilon, Initial residual = 0.00829421, Final residual = 3.12928e-06, No Iterations 6
smoothSolver:  Solving for k, Initial residual = 0.0334256, Final residual = 4.71137e-06, No Iterations 7
ExecutionTime = 0.54 s  ClockTime = 0 s

Courant Number mean: 1.84225 max: 5.11735
deltaT = 0.0047619
Time = 0.109524

PIMPLE: iteration 1
smoothSolver:  Solving for Ux, Initial residual = 0.0179792, Final residual = 3.36323e-06, No Iterations 7
smoothSolver:  Solving for Uy, Initial residual = 0.0154301, Final residual = 3.20464e-06, No Iterations 7
smoothSolver:  Solving for Uz, Initial residual = 0.132586, Final residual = 7.98071e-06, No Iterations 7
GAMG:  Solving for p, Initial residual = 0.0363128, Final residual = 0.000278111, No Iterations 3
time step continuity errors : sum local = 6.69655e-05, global = 1.16181e-05, cumulative = -0.000140447
GAMG:  Solving for p, Initial residual = 0.0105751, Final residual = 6.52675e-07, No Iterations 9
time step continuity errors : sum local = 1.57546e-07, global = 1.19469e-08, cumulative = -0.000140435
smoothSolver:  Solving for epsilon, Initial residual = 0.00795392, Final residual = 3.60106e-06, No Iterations 6
smoothSolver:  Solving for k, Initial residual = 0.0322473, Final residual = 4.6704e-06, No Iterations 7
ExecutionTime = 0.57 s  ClockTime = 0 s

Courant Number mean: 1.8879 max: 5.25961
deltaT = 0.00452381
Time = 0.114048

PIMPLE: iteration 1
smoothSolver:  Solving for Ux, Initial residual = 0.0164988, Final residual = 8.6371e-06, No Iterations 6
smoothSolver:  Solving for Uy, Initial residual = 0.014464, Final residual = 8.40147e-06, No Iterations 6
smoothSolver:  Solving for Uz, Initial residual = 0.1287, Final residual = 6.44386e-06, No Iterations 7
GAMG:  Solving for p, Initial residual = 0.0371122, Final residual = 0.000361109, No Iterations 3
time step continuity errors : sum local = 7.82181e-05, global = 1.02787e-05, cumulative = -0.000130157
GAMG:  Solving for p, Initial residual = 0.010558, Final residual = 5.25763e-07, No Iterations 10
time step continuity errors : sum local = 1.14729e-07, global = -3.45683e-08, cumulative = -0.000130191
smoothSolver:  Solving for epsilon, Initial residual = 0.00898699, Final residual = 3.93093e-06, No Iterations 6
smoothSolver:  Solving for k, Initial residual = 0.0310984, Final residual = 4.71695e-06, No Iterations 7
ExecutionTime = 0.6 s  ClockTime = 0 s

Courant Number mean: 1.8332 max: 5.13872
deltaT = 0.00429762
Time = 0.118345

PIMPLE: iteration 1
smoothSolver:  Solving for Ux, Initial residual = 0.0153836, Final residual = 8.3562e-06, No Iterations 6
smoothSolver:  Solving for Uy, Initial residual = 0.0133569, Final residual = 8.54258e-06, No Iterations 6
smoothSolver:  Solving for Uz, Initial residual = 0.116331, Final residual = 7.68632e-06, No Iterations 7
GAMG:  Solving for p, Initial residual = 0.0352798, Final residual = 0.000248772, No Iterations 3
time step continuity errors : sum local = 5.09843e-05, global = 3.10978e-06, cumulative = -0.000127082
GAMG:  Solving for p, Initial residual = 0.00999346, Final residual = 5.30094e-07, No Iterations 9
time step continuity errors : sum local = 1.08739e-07, global = 1.36591e-08, cumulative = -0.000127068
smoothSolver:  Solving for epsilon, Initial residual = 0.00932249, Final residual = 4.07381e-06, No Iterations 6
smoothSolver:  Solving for k, Initial residual = 0.0308267, Final residual = 4.13623e-06, No Iterations 7
ExecutionTime = 0.62 s  ClockTime = 0 s

Courant Number mean: 1.7757 max: 4.98203
deltaT = 0.00429762
Time = 0.122643

PIMPLE: iteration 1
smoothSolver:  Solving for Ux, Initial residual = 0.0145439, Final residual = 7.84862e-06, No Iterations 6
smoothSolver:  Solving for Uy, Initial residual = 0.0130942, Final residual = 7.51105e-06, No Iterations 6
smoothSolver:  Solving for Uz, Initial residual = 0.114264, Final residual = 6.94075e-06, No Iterations 7
GAMG:  Solving for p, Initial residual = 0.0348399, Final residual = 0.000324288, No Iterations 3
time step continuity errors : sum local = 6.64557e-05, global = 9.07607e-06, cumulative = -0.000117992
GAMG:  Solving for p, Initial residual = 0.00959224, Final residual = 5.64355e-07, No Iterations 10
time step continuity errors : sum local = 1.1651e-07, global = -3.35775e-08, cumulative = -0.000118025
smoothSolver:  Solving for epsilon, Initial residual = 0.00975337, Final residual = 4.60634e-06, No Iterations 6
smoothSolver:  Solving for k, Initial residual = 0.030172, Final residual = 4.6546e-06, No Iterations 7
ExecutionTime = 0.63 s  ClockTime = 0 s

Courant Number mean: 1.80829 max: 5.10397
deltaT = 0.00429762
Time = 0.12694

PIMPLE: iteration 1
smoothSolver:  Solving for Ux, Initial residual = 0.0142513, Final residual = 8.31538e-06, No Iterations 6
smoothSolver:  Solving for Uy, Initial residual = 0.0123539, Final residual = 7.68176e-06, No Iterations 6
smoothSolver:  Solving for Uz, Initial residual = 0.105617, Final residual = 7.69984e-06, No Iterations 7
GAMG:  Solving for p, Initial residual = 0.0344108, Final residual = 0.000253378, No Iterations 3
time step continuity errors : sum local = 5.10913e-05, global = 5.77418e-06, cumulative = -0.000112251
GAMG:  Solving for p, Initial residual = 0.00948023, Final residual = 5.93752e-07, No Iterations 9
time step continuity errors : sum local = 1.19877e-07, global = -3.45315e-08, cumulative = -0.000112286
smoothSolver:  Solving for epsilon, Initial residual = 0.0107603, Final residual = 4.71605e-06, No Iterations 6
smoothSolver:  Solving for k, Initial residual = 0.0309746, Final residual = 4.43003e-06, No Iterations 7
ExecutionTime = 0.66 s  ClockTime = 0 s

Courant Number mean: 1.83875 max: 5.18876
deltaT = 0.00405886
Time = 0.130999

PIMPLE: iteration 1
smoothSolver:  Solving for Ux, Initial residual = 0.0131662, Final residual = 6.794e-06, No Iterations 6
smoothSolver:  Solving for Uy, Initial residual = 0.0118507, Final residual = 6.43638e-06, No Iterations 6
smoothSolver:  Solving for Uz, Initial residual = 0.0966824, Final residual = 6.5879e-06, No Iterations 7
GAMG:  Solving for p, Initial residual = 0.0343123, Final residual = 0.000318978, No Iterations 3
time step continuity errors : sum local = 6.04189e-05, global = 1.74955e-07, cumulative = -0.000112111
GAMG:  Solving for p, Initial residual = 0.0092066, Final residual = 8.20305e-07, No Iterations 9
time step continuity errors : sum local = 1.56089e-07, global = 3.33174e-08, cumulative = -0.000112077
smoothSolver:  Solving for epsilon, Initial residual = 0.0112202, Final residual = 5.28271e-06, No Iterations 6
smoothSolver:  Solving for k, Initial residual = 0.0300231, Final residual = 4.48559e-06, No Iterations 7
ExecutionTime = 0.68 s  ClockTime = 1 s

Courant Number mean: 1.763 max: 5.00713
deltaT = 0.00405886
Time = 0.135058

PIMPLE: iteration 1
smoothSolver:  Solving for Ux, Initial residual = 0.0127475, Final residual = 7.19172e-06, No Iterations 6
smoothSolver:  Solving for Uy, Initial residual = 0.0112675, Final residual = 6.45229e-06, No Iterations 6
smoothSolver:  Solving for Uz, Initial residual = 0.0945935, Final residual = 6.80507e-06, No Iterations 7
GAMG:  Solving for p, Initial residual = 0.0340805, Final residual = 0.000258147, No Iterations 3
time step continuity errors : sum local = 4.895e-05, global = 5.81915e-06, cumulative = -0.000106258
GAMG:  Solving for p, Initial residual = 0.0088587, Final residual = 5.74542e-07, No Iterations 9
time step continuity errors : sum local = 1.09135e-07, global = 2.25123e-09, cumulative = -0.000106256
smoothSolver:  Solving for epsilon, Initial residual = 0.0124069, Final residual = 5.29125e-06, No Iterations 6
smoothSolver:  Solving for k, Initial residual = 0.0306034, Final residual = 4.37652e-06, No Iterations 7
ExecutionTime = 0.7 s  ClockTime = 1 s

Courant Number mean: 1.7879 max: 5.07505
deltaT = 0.00405886
Time = 0.139117

PIMPLE: iteration 1
smoothSolver:  Solving for Ux, Initial residual = 0.012317, Final residual = 6.71418e-06, No Iterations 6
smoothSolver:  Solving for Uy, Initial residual = 0.0109553, Final residual = 6.39735e-06, No Iterations 6
smoothSolver:  Solving for Uz, Initial residual = 0.090638, Final residual = 6.80469e-06, No Iterations 7
GAMG:  Solving for p, Initial residual = 0.0345529, Final residual = 0.000279788, No Iterations 3
time step continuity errors : sum local = 5.16189e-05, global = -6.79322e-07, cumulative = -0.000106935
GAMG:  Solving for p, Initial residual = 0.00906683, Final residual = 7.5687e-07, No Iterations 9
time step continuity errors : sum local = 1.39963e-07, global = 3.10143e-08, cumulative = -0.000106904
smoothSolver:  Solving for epsilon, Initial residual = 0.0125027, Final residual = 5.97295e-06, No Iterations 6
smoothSolver:  Solving for k, Initial residual = 0.0295355, Final residual = 4.70937e-06, No Iterations 7
ExecutionTime = 0.73 s  ClockTime = 1 s

Courant Number mean: 1.8112 max: 5.1809
deltaT = 0.00380518
Time = 0.142922

PIMPLE: iteration 1
smoothSolver:  Solving for Ux, Initial residual = 0.0118198, Final residual = 6.4198e-06, No Iterations 6
smoothSolver:  Solving for Uy, Initial residual = 0.0106064, Final residual = 5.9885e-06, No Iterations 6
smoothSolver:  Solving for Uz, Initial residual = 0.08654, Final residual = 6.39949e-06, No Iterations 7
GAMG:  Solving for p, Initial residual = 0.0327143, Final residual = 0.000226111, No Iterations 3
time step continuity errors : sum local = 3.97577e-05, global = 1.79246e-06, cumulative = -0.000105112
GAMG:  Solving for p, Initial residual = 0.00842565, Final residual = 8.05501e-07, No Iterations 8
time step continuity errors : sum local = 1.41835e-07, global = -3.00451e-08, cumulative = -0.000105142
smoothSolver:  Solving for epsilon, Initial residual = 0.012891, Final residual = 5.85619e-06, No Iterations 6
smoothSolver:  Solving for k, Initial residual = 0.0295648, Final residual = 4.45203e-06, No Iterations 7
ExecutionTime = 0.75 s  ClockTime = 1 s

Courant Number mean: 1.71873 max: 4.90878
deltaT = 0.00380518
Time = 0.146727

PIMPLE: iteration 1
smoothSolver:  Solving for Ux, Initial residual = 0.0112802, Final residual = 6.09308e-06, No Iterations 6
smoothSolver:  Solving for Uy, Initial residual = 0.0102363, Final residual = 5.44573e-06, No Iterations 6
smoothSolver:  Solving for Uz, Initial residual = 0.0803681, Final residual = 6.14161e-06, No Iterations 7
GAMG:  Solving for p, Initial residual = 0.0333235, Final residual = 0.000310048, No Iterations 3
time step continuity errors : sum local = 5.26249e-05, global = 3.69046e-07, cumulative = -0.000104773
GAMG:  Solving for p, Initial residual = 0.00844599, Final residual = 5.96811e-07, No Iterations 9
time step continuity errors : sum local = 1.01657e-07, global = 2.47278e-08, cumulative = -0.000104748
smoothSolver:  Solving for epsilon, Initial residual = 0.0127595, Final residual = 6.15748e-06, No Iterations 6
smoothSolver:  Solving for k, Initial residual = 0.0296011, Final residual = 4.63396e-06, No Iterations 7
ExecutionTime = 0.77 s  ClockTime = 1 s

Courant Number mean: 1.73818 max: 4.99934
deltaT = 0.00380518
Time = 0.150533

PIMPLE: iteration 1
smoothSolver:  Solving for Ux, Initial residual = 0.0109917, Final residual = 6.05801e-06, No Iterations 6
smoothSolver:  Solving for Uy, Initial residual = 0.00991921, Final residual = 5.51199e-06, No Iterations 6
smoothSolver:  Solving for Uz, Initial residual = 0.0738395, Final residual = 6.4468e-06, No Iterations 7
GAMG:  Solving for p, Initial residual = 0.0321738, Final residual = 0.000250718, No Iterations 3
time step continuity errors : sum local = 4.44035e-05, global = 3.27907e-06, cumulative = -0.000101469
GAMG:  Solving for p, Initial residual = 0.00819425, Final residual = 9.30857e-07, No Iterations 8
time step continuity errors : sum local = 1.6522e-07, global = -1.11525e-10, cumulative = -0.000101469
smoothSolver:  Solving for epsilon, Initial residual = 0.0132483, Final residual = 6.36653e-06, No Iterations 6
smoothSolver:  Solving for k, Initial residual = 0.0293936, Final residual = 4.64759e-06, No Iterations 7
ExecutionTime = 0.79 s  ClockTime = 1 s

Courant Number mean: 1.75681 max: 5.04383
deltaT = 0.00380518
Time = 0.154338

PIMPLE: iteration 1
smoothSolver:  Solving for Ux, Initial residual = 0.0105542, Final residual = 5.69213e-06, No Iterations 6
smoothSolver:  Solving for Uy, Initial residual = 0.00960128, Final residual = 5.37182e-06, No Iterations 6
smoothSolver:  Solving for Uz, Initial residual = 0.0752355, Final residual = 6.08822e-06, No Iterations 7
GAMG:  Solving for p, Initial residual = 0.0327585, Final residual = 0.000279279, No Iterations 3
time step continuity errors : sum local = 4.7535e-05, global = -3.49519e-08, cumulative = -0.000101504
GAMG:  Solving for p, Initial residual = 0.00842646, Final residual = 9.32878e-07, No Iterations 8
time step continuity errors : sum local = 1.59218e-07, global = -3.5083e-09, cumulative = -0.000101508
smoothSolver:  Solving for epsilon, Initial residual = 0.013689, Final residual = 6.74456e-06, No Iterations 6
smoothSolver:  Solving for k, Initial residual = 0.029183, Final residual = 5.04522e-06, No Iterations 7
ExecutionTime = 0.81 s  ClockTime = 1 s

Courant Number mean: 1.77417 max: 5.13177
deltaT = 0.00380518
Time = 0.158143

PIMPLE: iteration 1
smoothSolver:  Solving for Ux, Initial residual = 0.0102846, Final residual = 5.90416e-06, No Iterations 6
smoothSolver:  Solving for Uy, Initial residual = 0.00938892, Final residual = 5.18126e-06, No Iterations 6
smoothSolver:  Solving for Uz, Initial residual = 0.0711987, Final residual = 5.84098e-06, No Iterations 7
GAMG:  Solving for p, Initial residual = 0.0310149, Final residual = 0.000223821, No Iterations 3
time step continuity errors : sum local = 4.03805e-05, global = -3.91183e-07, cumulative = -0.000101899
GAMG:  Solving for p, Initial residual = 0.00764719, Final residual = 5.07414e-07, No Iterations 9
time step continuity errors : sum local = 9.17259e-08, global = 1.21789e-08, cumulative = -0.000101887
smoothSolver:  Solving for epsilon, Initial residual = 0.0138847, Final residual = 6.7791e-06, No Iterations 6
smoothSolver:  Solving for k, Initial residual = 0.0287254, Final residual = 4.87083e-06, No Iterations 7
ExecutionTime = 0.82 s  ClockTime = 1 s

Courant Number mean: 1.79073 max: 5.16828
deltaT = 0.00380518
Time = 0.161948

PIMPLE: iteration 1
smoothSolver:  Solving for Ux, Initial residual = 0.0099536, Final residual = 5.59642e-06, No Iterations 6
smoothSolver:  Solving for Uy, Initial residual = 0.00919579, Final residual = 4.93382e-06, No Iterations 6
smoothSolver:  Solving for Uz, Initial residual = 0.0692908, Final residual = 5.96037e-06, No Iterations 7
GAMG:  Solving for p, Initial residual = 0.0321291, Final residual = 0.000301493, No Iterations 3
time step continuity errors : sum local = 5.14376e-05, global = 1.99633e-06, cumulative = -9.98903e-05
GAMG:  Solving for p, Initial residual = 0.0080469, Final residual = 6.02379e-07, No Iterations 9
time step continuity errors : sum local = 1.03079e-07, global = 1.40339e-08, cumulative = -9.98763e-05
smoothSolver:  Solving for epsilon, Initial residual = 0.0137818, Final residual = 7.08905e-06, No Iterations 6
smoothSolver:  Solving for k, Initial residual = 0.0285053, Final residual = 4.93149e-06, No Iterations 7
ExecutionTime = 0.85 s  ClockTime = 1 s

Courant Number mean: 1.8065 max: 5.2499
deltaT = 0.00380518
Time = 0.165753

PIMPLE: iteration 1
smoothSolver:  Solving for Ux, Initial residual = 0.00982956, Final residual = 5.83875e-06, No Iterations 6
smoothSolver:  Solving for Uy, Initial residual = 0.00897163, Final residual = 4.87164e-06, No Iterations 6
smoothSolver:  Solving for Uz, Initial residual = 0.0656013, Final residual = 5.55712e-06, No Iterations 7
GAMG:  Solving for p, Initial residual = 0.0309889, Final residual = 0.000205246, No Iterations 3
time step continuity errors : sum local = 3.73273e-05, global = -9.69435e-07, cumulative = -0.000100846
GAMG:  Solving for p, Initial residual = 0.00752632, Final residual = 8.1686e-07, No Iterations 8
time step continuity errors : sum local = 1.48737e-07, global = 8.92667e-09, cumulative = -0.000100837
smoothSolver:  Solving for epsilon, Initial residual = 0.0143533, Final residual = 7.21157e-06, No Iterations 6
smoothSolver:  Solving for k, Initial residual = 0.0286338, Final residual = 4.78645e-06, No Iterations 7
ExecutionTime = 0.87 s  ClockTime = 1 s

Courant Number mean: 1.82199 max: 5.27816
deltaT = 0.00342467
Time = 0.169178

PIMPLE: iteration 1
smoothSolver:  Solving for Ux, Initial residual = 0.00906129, Final residual = 4.88119e-06, No Iterations 6
smoothSolver:  Solving for Uy, Initial residual = 0.00849355, Final residual = 4.47424e-06, No Iterations 6
smoothSolver:  Solving for Uz, Initial residual = 0.0637938, Final residual = 5.83178e-06, No Iterations 7
GAMG:  Solving for p, Initial residual = 0.031223, Final residual = 0.000278521, No Iterations 3
time step continuity errors : sum local = 4.10971e-05, global = -1.05669e-06, cumulative = -0.000101894
GAMG:  Solving for p, Initial residual = 0.00786203, Final residual = 9.69677e-07, No Iterations 8
time step continuity errors : sum local = 1.43229e-07, global = -8.64976e-09, cumulative = -0.000101902
smoothSolver:  Solving for epsilon, Initial residual = 0.0140113, Final residual = 7.24088e-06, No Iterations 6
smoothSolver:  Solving for k, Initial residual = 0.0281618, Final residual = 4.5997e-06, No Iterations 7
ExecutionTime = 0.89 s  ClockTime = 1 s

Courant Number mean: 1.65279 max: 4.81256
deltaT = 0.00342467
Time = 0.172603

PIMPLE: iteration 1
smoothSolver:  Solving for Ux, Initial residual = 0.00897032, Final residual = 5.05241e-06, No Iterations 6
smoothSolver:  Solving for Uy, Initial residual = 0.0082904, Final residual = 4.65555e-06, No Iterations 6
smoothSolver:  Solving for Uz, Initial residual = 0.0608249, Final residual = 5.49133e-06, No Iterations 7
GAMG:  Solving for p, Initial residual = 0.0301794, Final residual = 0.000187575, No Iterations 3
time step continuity errors : sum local = 2.95155e-05, global = -2.77648e-06, cumulative = -0.000104679
GAMG:  Solving for p, Initial residual = 0.00707988, Final residual = 5.96979e-07, No Iterations 8
time step continuity errors : sum local = 9.3901e-08, global = -1.24748e-08, cumulative = -0.000104691
smoothSolver:  Solving for epsilon, Initial residual = 0.0144556, Final residual = 7.41044e-06, No Iterations 6
smoothSolver:  Solving for k, Initial residual = 0.0279554, Final residual = 4.55166e-06, No Iterations 7
ExecutionTime = 0.91 s  ClockTime = 1 s

Courant Number mean: 1.66532 max: 4.82805
deltaT = 0.00342467
Time = 0.176027

PIMPLE: iteration 1
smoothSolver:  Solving for Ux, Initial residual = 0.0083916, Final residual = 4.92802e-06, No Iterations 6
smoothSolver:  Solving for Uy, Initial residual = 0.00816466, Final residual = 4.04043e-06, No Iterations 6
smoothSolver:  Solving for Uz, Initial residual = 0.0565789, Final residual = 5.68414e-06, No Iterations 7
GAMG:  Solving for p, Initial residual = 0.0297486, Final residual = 0.00011453, No Iterations 4
time step continuity errors : sum local = 1.69962e-05, global = -2.99554e-07, cumulative = -0.000104991
GAMG:  Solving for p, Initial residual = 0.00723584, Final residual = 9.12119e-07, No Iterations 8
time step continuity errors : sum local = 1.36105e-07, global = 2.52093e-08, cumulative = -0.000104965
smoothSolver:  Solving for epsilon, Initial residual = 0.0150201, Final residual = 7.27808e-06, No Iterations 6
smoothSolver:  Solving for k, Initial residual = 0.02857, Final residual = 4.69766e-06, No Iterations 7
ExecutionTime = 0.93 s  ClockTime = 1 s

Courant Number mean: 1.67707 max: 4.88377
deltaT = 0.00342467
Time = 0.179452

PIMPLE: iteration 1
smoothSolver:  Solving for Ux, Initial residual = 0.00841051, Final residual = 5.14983e-06, No Iterations 6
smoothSolver:  Solving for Uy, Initial residual = 0.00784537, Final residual = 4.26681e-06, No Iterations 6
smoothSolver:  Solving for Uz, Initial residual = 0.0535092, Final residual = 5.60833e-06, No Iterations 7
GAMG:  Solving for p, Initial residual = 0.0291249, Final residual = 0.00015606, No Iterations 3
time step continuity errors : sum local = 2.47151e-05, global = -3.16284e-06, cumulative = -0.000108128
GAMG:  Solving for p, Initial residual = 0.00682111, Final residual = 7.84984e-07, No Iterations 7
time step continuity errors : sum local = 1.24444e-07, global = -1.80477e-10, cumulative = -0.000108128
smoothSolver:  Solving for epsilon, Initial residual = 0.0152483, Final residual = 7.18483e-06, No Iterations 6
smoothSolver:  Solving for k, Initial residual = 0.0282868, Final residual = 4.64777e-06, No Iterations 7
ExecutionTime = 0.94 s  ClockTime = 1 s

Courant Number mean: 1.68852 max: 4.89921
deltaT = 0.00342467
Time = 0.182877

PIMPLE: iteration 1
smoothSolver:  Solving for Ux, Initial residual = 0.00804042, Final residual = 4.87723e-06, No Iterations 6
smoothSolver:  Solving for Uy, Initial residual = 0.0077711, Final residual = 3.99927e-06, No Iterations 6
smoothSolver:  Solving for Uz, Initial residual = 0.0523808, Final residual = 6.06567e-06, No Iterations 7
GAMG:  Solving for p, Initial residual = 0.0289966, Final residual = 0.000115692, No Iterations 4
time step continuity errors : sum local = 1.73565e-05, global = -1.26381e-06, cumulative = -0.000109392
GAMG:  Solving for p, Initial residual = 0.00720939, Final residual = 7.18257e-07, No Iterations 9
time step continuity errors : sum local = 1.08073e-07, global = -1.24974e-08, cumulative = -0.000109405
smoothSolver:  Solving for epsilon, Initial residual = 0.0153937, Final residual = 7.28644e-06, No Iterations 6
smoothSolver:  Solving for k, Initial residual = 0.0284726, Final residual = 4.95055e-06, No Iterations 7
ExecutionTime = 0.96 s  ClockTime = 1 s

Courant Number mean: 1.69956 max: 4.95199
deltaT = 0.00342467
Time = 0.186301

PIMPLE: iteration 1
smoothSolver:  Solving for Ux, Initial residual = 0.00804348, Final residual = 4.95852e-06, No Iterations 6
smoothSolver:  Solving for Uy, Initial residual = 0.00763758, Final residual = 4.04821e-06, No Iterations 6
smoothSolver:  Solving for Uz, Initial residual = 0.0504598, Final residual = 5.19216e-06, No Iterations 7
GAMG:  Solving for p, Initial residual = 0.028915, Final residual = 0.000155324, No Iterations 3
time step continuity errors : sum local = 2.47407e-05, global = -1.20398e-06, cumulative = -0.000110609
GAMG:  Solving for p, Initial residual = 0.00671143, Final residual = 7.60922e-07, No Iterations 7
time step continuity errors : sum local = 1.21299e-07, global = 7.04955e-09, cumulative = -0.000110602
smoothSolver:  Solving for epsilon, Initial residual = 0.015356, Final residual = 7.36434e-06, No Iterations 6
smoothSolver:  Solving for k, Initial residual = 0.0281916, Final residual = 4.63812e-06, No Iterations 7
ExecutionTime = 0.98 s  ClockTime = 1 s

Courant Number mean: 1.71025 max: 4.96831
deltaT = 0.00342467
Time = 0.189726

PIMPLE: iteration 1
smoothSolver:  Solving for Ux, Initial residual = 0.00766907, Final residual = 5.0825e-06, No Iterations 6
smoothSolver:  Solving for Uy, Initial residual = 0.00752071, Final residual = 3.71802e-06, No Iterations 6
smoothSolver:  Solving for Uz, Initial residual = 0.049169, Final residual = 5.94469e-06, No Iterations 7
GAMG:  Solving for p, Initial residual = 0.0284069, Final residual = 0.000276219, No Iterations 3
time step continuity errors : sum local = 4.17721e-05, global = 9.81544e-07, cumulative = -0.00010962
GAMG:  Solving for p, Initial residual = 0.0073297, Final residual = 7.30934e-07, No Iterations 8
time step continuity errors : sum local = 1.10721e-07, global = -7.98996e-09, cumulative = -0.000109628
smoothSolver:  Solving for epsilon, Initial residual = 0.0157201, Final residual = 7.30797e-06, No Iterations 6
smoothSolver:  Solving for k, Initial residual = 0.0281621, Final residual = 4.7342e-06, No Iterations 7
ExecutionTime = 1.01 s  ClockTime = 1 s

Courant Number mean: 1.72053 max: 5.02141
deltaT = 0.00342467
Time = 0.193151

PIMPLE: iteration 1
smoothSolver:  Solving for Ux, Initial residual = 0.00767396, Final residual = 4.65899e-06, No Iterations 6
smoothSolver:  Solving for Uy, Initial residual = 0.00733796, Final residual = 3.80437e-06, No Iterations 6
smoothSolver:  Solving for Uz, Initial residual = 0.0472665, Final residual = 5.08857e-06, No Iterations 7
GAMG:  Solving for p, Initial residual = 0.0281344, Final residual = 0.000124666, No Iterations 3
time step continuity errors : sum local = 1.99795e-05, global = -2.36885e-06, cumulative = -0.000111997
GAMG:  Solving for p, Initial residual = 0.00649125, Final residual = 8.17933e-07, No Iterations 7
time step continuity errors : sum local = 1.31124e-07, global = -1.78908e-08, cumulative = -0.000112015
smoothSolver:  Solving for epsilon, Initial residual = 0.015125, Final residual = 7.20736e-06, No Iterations 6
smoothSolver:  Solving for k, Initial residual = 0.0274943, Final residual = 4.43569e-06, No Iterations 7
ExecutionTime = 1.03 s  ClockTime = 1 s

Courant Number mean: 1.7304 max: 5.0406
deltaT = 0.00342467
Time = 0.196575

PIMPLE: iteration 1
smoothSolver:  Solving for Ux, Initial residual = 0.0073742, Final residual = 4.95336e-06, No Iterations 6
smoothSolver:  Solving for Uy, Initial residual = 0.00725959, Final residual = 3.55279e-06, No Iterations 6
smoothSolver:  Solving for Uz, Initial residual = 0.0463564, Final residual = 5.81343e-06, No Iterations 7
GAMG:  Solving for p, Initial residual = 0.0284586, Final residual = 0.000261085, No Iterations 3
time step continuity errors : sum local = 4.02527e-05, global = 9.55673e-07, cumulative = -0.000111059
GAMG:  Solving for p, Initial residual = 0.00703905, Final residual = 6.22357e-07, No Iterations 8
time step continuity errors : sum local = 9.62095e-08, global = 2.93751e-09, cumulative = -0.000111056
smoothSolver:  Solving for epsilon, Initial residual = 0.0151197, Final residual = 7.11769e-06, No Iterations 6
smoothSolver:  Solving for k, Initial residual = 0.0270493, Final residual = 4.52442e-06, No Iterations 7
ExecutionTime = 1.05 s  ClockTime = 1 s

Courant Number mean: 1.73993 max: 5.10136
deltaT = 0.00342467
Time = 0.2

PIMPLE: iteration 1
smoothSolver:  Solving for Ux, Initial residual = 0.00740423, Final residual = 4.60328e-06, No Iterations 6
smoothSolver:  Solving for Uy, Initial residual = 0.00711738, Final residual = 3.67142e-06, No Iterations 6
smoothSolver:  Solving for Uz, Initial residual = 0.0447481, Final residual = 4.86288e-06, No Iterations 7
GAMG:  Solving for p, Initial residual = 0.0276384, Final residual = 0.00012737, No Iterations 3
time step continuity errors : sum local = 2.03259e-05, global = -2.49427e-06, cumulative = -0.000113551
GAMG:  Solving for p, Initial residual = 0.00642184, Final residual = 8.63594e-07, No Iterations 7
time step continuity errors : sum local = 1.37726e-07, global = -2.71492e-08, cumulative = -0.000113578
smoothSolver:  Solving for epsilon, Initial residual = 0.0144768, Final residual = 6.8754e-06, No Iterations 6
smoothSolver:  Solving for k, Initial residual = 0.026452, Final residual = 4.30644e-06, No Iterations 7
ExecutionTime = 1.09 s  ClockTime = 1 s

Courant Number mean: 1.74919 max: 5.11746
deltaT = 0.00333333
Time = 0.203333

PIMPLE: iteration 1
smoothSolver:  Solving for Ux, Initial residual = 0.007031, Final residual = 4.6393e-06, No Iterations 6
smoothSolver:  Solving for Uy, Initial residual = 0.00701081, Final residual = 3.50474e-06, No Iterations 6
smoothSolver:  Solving for Uz, Initial residual = 0.044551, Final residual = 6.08729e-06, No Iterations 7
GAMG:  Solving for p, Initial residual = 0.0285057, Final residual = 0.00026925, No Iterations 3
time step continuity errors : sum local = 4.02307e-05, global = 1.05441e-07, cumulative = -0.000113472
GAMG:  Solving for p, Initial residual = 0.00692485, Final residual = 6.05474e-07, No Iterations 8
time step continuity errors : sum local = 9.06333e-08, global = 6.02338e-09, cumulative = -0.000113466
smoothSolver:  Solving for epsilon, Initial residual = 0.0141338, Final residual = 6.61174e-06, No Iterations 6
smoothSolver:  Solving for k, Initial residual = 0.025769, Final residual = 4.24087e-06, No Iterations 7
ExecutionTime = 1.11 s  ClockTime = 1 s

Courant Number mean: 1.71105 max: 5.03039
deltaT = 0.00333333
Time = 0.206667

PIMPLE: iteration 1
smoothSolver:  Solving for Ux, Initial residual = 0.00702375, Final residual = 4.66064e-06, No Iterations 6
smoothSolver:  Solving for Uy, Initial residual = 0.00697686, Final residual = 3.59502e-06, No Iterations 6
smoothSolver:  Solving for Uz, Initial residual = 0.0423958, Final residual = 4.93357e-06, No Iterations 7
GAMG:  Solving for p, Initial residual = 0.027169, Final residual = 9.81442e-05, No Iterations 3
time step continuity errors : sum local = 1.51003e-05, global = -8.28396e-07, cumulative = -0.000114295
GAMG:  Solving for p, Initial residual = 0.00607589, Final residual = 7.40366e-07, No Iterations 7
time step continuity errors : sum local = 1.13973e-07, global = -1.18851e-08, cumulative = -0.000114307
smoothSolver:  Solving for epsilon, Initial residual = 0.0137893, Final residual = 6.61899e-06, No Iterations 6
smoothSolver:  Solving for k, Initial residual = 0.0250974, Final residual = 4.05063e-06, No Iterations 7
ExecutionTime = 1.13 s  ClockTime = 1 s

Courant Number mean: 1.7194 max: 5.04229
deltaT = 0.00333333
Time = 0.21

PIMPLE: iteration 1
smoothSolver:  Solving for Ux, Initial residual = 0.00671839, Final residual = 4.57338e-06, No Iterations 6
smoothSolver:  Solving for Uy, Initial residual = 0.00683316, Final residual = 3.23014e-06, No Iterations 6
smoothSolver:  Solving for Uz, Initial residual = 0.0406606, Final residual = 5.85396e-06, No Iterations 7
GAMG:  Solving for p, Initial residual = 0.0281988, Final residual = 0.000240255, No Iterations 3
time step continuity errors : sum local = 3.70697e-05, global = 8.95308e-07, cumulative = -0.000113411
GAMG:  Solving for p, Initial residual = 0.00682242, Final residual = 4.79387e-07, No Iterations 8
time step continuity errors : sum local = 7.41209e-08, global = 5.19581e-09, cumulative = -0.000113406
smoothSolver:  Solving for epsilon, Initial residual = 0.013335, Final residual = 6.28433e-06, No Iterations 6
smoothSolver:  Solving for k, Initial residual = 0.0246869, Final residual = 4.06561e-06, No Iterations 7
ExecutionTime = 1.15 s  ClockTime = 1 s

Courant Number mean: 1.72732 max: 5.09355
deltaT = 0.00321429
Time = 0.213214

PIMPLE: iteration 1
smoothSolver:  Solving for Ux, Initial residual = 0.00671098, Final residual = 4.49212e-06, No Iterations 6
smoothSolver:  Solving for Uy, Initial residual = 0.00674995, Final residual = 3.33326e-06, No Iterations 6
smoothSolver:  Solving for Uz, Initial residual = 0.0400152, Final residual = 4.7888e-06, No Iterations 7
GAMG:  Solving for p, Initial residual = 0.0274589, Final residual = 0.00010175, No Iterations 3
time step continuity errors : sum local = 1.4905e-05, global = -1.79602e-06, cumulative = -0.000115202
GAMG:  Solving for p, Initial residual = 0.00615633, Final residual = 8.19327e-07, No Iterations 7
time step continuity errors : sum local = 1.19881e-07, global = -2.57649e-08, cumulative = -0.000115228
smoothSolver:  Solving for epsilon, Initial residual = 0.0128281, Final residual = 6.08803e-06, No Iterations 6
smoothSolver:  Solving for k, Initial residual = 0.023954, Final residual = 3.87929e-06, No Iterations 7
ExecutionTime = 1.17 s  ClockTime = 1 s

Courant Number mean: 1.6731 max: 4.93321
deltaT = 0.00321429
Time = 0.216429

PIMPLE: iteration 1
smoothSolver:  Solving for Ux, Initial residual = 0.00641713, Final residual = 4.6837e-06, No Iterations 6
smoothSolver:  Solving for Uy, Initial residual = 0.00665073, Final residual = 9.91482e-06, No Iterations 5
smoothSolver:  Solving for Uz, Initial residual = 0.0377169, Final residual = 5.53588e-06, No Iterations 7
GAMG:  Solving for p, Initial residual = 0.02945, Final residual = 0.000259737, No Iterations 3
time step continuity errors : sum local = 3.83459e-05, global = 5.37956e-07, cumulative = -0.00011469
GAMG:  Solving for p, Initial residual = 0.00681977, Final residual = 5.57307e-07, No Iterations 8
time step continuity errors : sum local = 8.24876e-08, global = 1.96975e-08, cumulative = -0.00011467
smoothSolver:  Solving for epsilon, Initial residual = 0.0126163, Final residual = 5.91055e-06, No Iterations 6
smoothSolver:  Solving for k, Initial residual = 0.0235451, Final residual = 3.88756e-06, No Iterations 7
ExecutionTime = 1.19 s  ClockTime = 1 s

Courant Number mean: 1.68012 max: 4.97104
deltaT = 0.00321429
Time = 0.219643

PIMPLE: iteration 1
smoothSolver:  Solving for Ux, Initial residual = 0.0065639, Final residual = 4.47864e-06, No Iterations 6
smoothSolver:  Solving for Uy, Initial residual = 0.00648682, Final residual = 3.12499e-06, No Iterations 6
smoothSolver:  Solving for Uz, Initial residual = 0.037989, Final residual = 4.65991e-06, No Iterations 7
GAMG:  Solving for p, Initial residual = 0.0274785, Final residual = 9.67168e-05, No Iterations 3
time step continuity errors : sum local = 1.44264e-05, global = -1.69812e-06, cumulative = -0.000116368
GAMG:  Solving for p, Initial residual = 0.00601235, Final residual = 4.699e-07, No Iterations 7
time step continuity errors : sum local = 7.00525e-08, global = -1.10546e-08, cumulative = -0.000116379
smoothSolver:  Solving for epsilon, Initial residual = 0.0122696, Final residual = 5.67594e-06, No Iterations 6
smoothSolver:  Solving for k, Initial residual = 0.0230496, Final residual = 3.94071e-06, No Iterations 7
ExecutionTime = 1.2 s  ClockTime = 1 s

Courant Number mean: 1.68703 max: 4.99422
deltaT = 0.00321429
Time = 0.222857

PIMPLE: iteration 1
smoothSolver:  Solving for Ux, Initial residual = 0.00638364, Final residual = 4.18173e-06, No Iterations 6
smoothSolver:  Solving for Uy, Initial residual = 0.00648062, Final residual = 9.51091e-06, No Iterations 5
smoothSolver:  Solving for Uz, Initial residual = 0.0371212, Final residual = 5.20649e-06, No Iterations 7
GAMG:  Solving for p, Initial residual = 0.0297108, Final residual = 0.000263864, No Iterations 3
time step continuity errors : sum local = 3.88933e-05, global = 1.23089e-06, cumulative = -0.000115148
GAMG:  Solving for p, Initial residual = 0.00667667, Final residual = 4.73333e-07, No Iterations 8
time step continuity errors : sum local = 6.98739e-08, global = 8.59128e-09, cumulative = -0.00011514
smoothSolver:  Solving for epsilon, Initial residual = 0.0121314, Final residual = 5.57265e-06, No Iterations 6
smoothSolver:  Solving for k, Initial residual = 0.0228133, Final residual = 3.70618e-06, No Iterations 7
ExecutionTime = 1.23 s  ClockTime = 1 s

Courant Number mean: 1.69354 max: 5.02671
deltaT = 0.00321429
Time = 0.226071

PIMPLE: iteration 1
smoothSolver:  Solving for Ux, Initial residual = 0.00643512, Final residual = 4.46421e-06, No Iterations 6
smoothSolver:  Solving for Uy, Initial residual = 0.00635005, Final residual = 9.75704e-06, No Iterations 5
smoothSolver:  Solving for Uz, Initial residual = 0.0380684, Final residual = 4.55422e-06, No Iterations 7
GAMG:  Solving for p, Initial residual = 0.0278291, Final residual = 0.000272073, No Iterations 2
time step continuity errors : sum local = 4.05788e-05, global = -1.08697e-06, cumulative = -0.000116227
GAMG:  Solving for p, Initial residual = 0.00602447, Final residual = 5.34714e-07, No Iterations 8
time step continuity errors : sum local = 7.97241e-08, global = -7.83643e-09, cumulative = -0.000116235
smoothSolver:  Solving for epsilon, Initial residual = 0.0118708, Final residual = 5.44886e-06, No Iterations 6
smoothSolver:  Solving for k, Initial residual = 0.0224782, Final residual = 3.59457e-06, No Iterations 7
ExecutionTime = 1.25 s  ClockTime = 1 s

Courant Number mean: 1.70017 max: 5.05238
deltaT = 0.00321429
Time = 0.229286

PIMPLE: iteration 1
smoothSolver:  Solving for Ux, Initial residual = 0.00618744, Final residual = 4.47803e-06, No Iterations 6
smoothSolver:  Solving for Uy, Initial residual = 0.00630303, Final residual = 9.09282e-06, No Iterations 5
smoothSolver:  Solving for Uz, Initial residual = 0.0366071, Final residual = 5.14753e-06, No Iterations 7
GAMG:  Solving for p, Initial residual = 0.0292691, Final residual = 0.000232211, No Iterations 3
time step continuity errors : sum local = 3.45233e-05, global = 1.37764e-06, cumulative = -0.000114857
GAMG:  Solving for p, Initial residual = 0.0065703, Final residual = 4.73281e-07, No Iterations 8
time step continuity errors : sum local = 7.04733e-08, global = 1.35864e-08, cumulative = -0.000114843
smoothSolver:  Solving for epsilon, Initial residual = 0.0116924, Final residual = 5.36707e-06, No Iterations 6
smoothSolver:  Solving for k, Initial residual = 0.0219213, Final residual = 3.60708e-06, No Iterations 7
ExecutionTime = 1.27 s  ClockTime = 1 s

Courant Number mean: 1.70641 max: 5.08626
deltaT = 0.00321429
Time = 0.2325

PIMPLE: iteration 1
smoothSolver:  Solving for Ux, Initial residual = 0.00623308, Final residual = 4.42975e-06, No Iterations 6
smoothSolver:  Solving for Uy, Initial residual = 0.00619364, Final residual = 9.33675e-06, No Iterations 5
smoothSolver:  Solving for Uz, Initial residual = 0.0360218, Final residual = 4.18498e-06, No Iterations 7
GAMG:  Solving for p, Initial residual = 0.0274092, Final residual = 8.75269e-05, No Iterations 3
time step continuity errors : sum local = 1.3169e-05, global = -1.6551e-06, cumulative = -0.000116499
GAMG:  Solving for p, Initial residual = 0.0060036, Final residual = 9.02895e-07, No Iterations 6
time step continuity errors : sum local = 1.35775e-07, global = 2.74513e-08, cumulative = -0.000116471
smoothSolver:  Solving for epsilon, Initial residual = 0.0114939, Final residual = 5.20004e-06, No Iterations 6
smoothSolver:  Solving for k, Initial residual = 0.021658, Final residual = 3.55661e-06, No Iterations 7
ExecutionTime = 1.29 s  ClockTime = 1 s

Courant Number mean: 1.71267 max: 5.10473
deltaT = 0.00321429
Time = 0.235714

PIMPLE: iteration 1
smoothSolver:  Solving for Ux, Initial residual = 0.00609734, Final residual = 4.71836e-06, No Iterations 6
smoothSolver:  Solving for Uy, Initial residual = 0.00616259, Final residual = 8.80353e-06, No Iterations 5
smoothSolver:  Solving for Uz, Initial residual = 0.0355307, Final residual = 4.83802e-06, No Iterations 7
GAMG:  Solving for p, Initial residual = 0.0286168, Final residual = 0.00020999, No Iterations 3
time step continuity errors : sum local = 3.1637e-05, global = 2.524e-06, cumulative = -0.000113947
GAMG:  Solving for p, Initial residual = 0.00627797, Final residual = 4.53102e-07, No Iterations 8
time step continuity errors : sum local = 6.83214e-08, global = 1.41909e-08, cumulative = -0.000113933
smoothSolver:  Solving for epsilon, Initial residual = 0.0112361, Final residual = 5.15476e-06, No Iterations 6
smoothSolver:  Solving for k, Initial residual = 0.020949, Final residual = 3.52759e-06, No Iterations 7
ExecutionTime = 1.31 s  ClockTime = 1 s

Courant Number mean: 1.71861 max: 5.14637
deltaT = 0.00306122
Time = 0.238776

PIMPLE: iteration 1
smoothSolver:  Solving for Ux, Initial residual = 0.006218, Final residual = 3.93726e-06, No Iterations 6
smoothSolver:  Solving for Uy, Initial residual = 0.00616079, Final residual = 9.05545e-06, No Iterations 5
smoothSolver:  Solving for Uz, Initial residual = 0.0352496, Final residual = 3.99174e-06, No Iterations 7
GAMG:  Solving for p, Initial residual = 0.0286523, Final residual = 8.93303e-05, No Iterations 3
time step continuity errors : sum local = 1.25004e-05, global = -1.68262e-06, cumulative = -0.000115615
GAMG:  Solving for p, Initial residual = 0.00590661, Final residual = 7.60835e-07, No Iterations 6
time step continuity errors : sum local = 1.06235e-07, global = -1.46641e-08, cumulative = -0.00011563
smoothSolver:  Solving for epsilon, Initial residual = 0.0108737, Final residual = 4.85073e-06, No Iterations 6
smoothSolver:  Solving for k, Initial residual = 0.0205026, Final residual = 3.35228e-06, No Iterations 7
ExecutionTime = 1.33 s  ClockTime = 1 s

Courant Number mean: 1.64246 max: 4.92353
deltaT = 0.00306122
Time = 0.241837

PIMPLE: iteration 1
smoothSolver:  Solving for Ux, Initial residual = 0.00579406, Final residual = 4.37162e-06, No Iterations 6
smoothSolver:  Solving for Uy, Initial residual = 0.00609106, Final residual = 8.24163e-06, No Iterations 5
smoothSolver:  Solving for Uz, Initial residual = 0.0332594, Final residual = 4.51596e-06, No Iterations 7
GAMG:  Solving for p, Initial residual = 0.0293513, Final residual = 0.000192045, No Iterations 3
time step continuity errors : sum local = 2.72014e-05, global = 1.76078e-06, cumulative = -0.000113869
GAMG:  Solving for p, Initial residual = 0.00621296, Final residual = 6.2059e-07, No Iterations 8
time step continuity errors : sum local = 8.81738e-08, global = 1.32782e-08, cumulative = -0.000113856
smoothSolver:  Solving for epsilon, Initial residual = 0.0107318, Final residual = 4.77008e-06, No Iterations 6
smoothSolver:  Solving for k, Initial residual = 0.0199419, Final residual = 3.35534e-06, No Iterations 7
ExecutionTime = 1.35 s  ClockTime = 1 s

Courant Number mean: 1.6478 max: 4.95384
deltaT = 0.00306122
Time = 0.244898

PIMPLE: iteration 1
smoothSolver:  Solving for Ux, Initial residual = 0.00604846, Final residual = 3.95873e-06, No Iterations 6
smoothSolver:  Solving for Uy, Initial residual = 0.00599541, Final residual = 8.5486e-06, No Iterations 5
smoothSolver:  Solving for Uz, Initial residual = 0.0320906, Final residual = 3.64885e-06, No Iterations 7
GAMG:  Solving for p, Initial residual = 0.0274715, Final residual = 0.000260799, No Iterations 2
time step continuity errors : sum local = 3.69183e-05, global = -2.50871e-06, cumulative = -0.000116365
GAMG:  Solving for p, Initial residual = 0.00569603, Final residual = 6.75352e-07, No Iterations 8
time step continuity errors : sum local = 9.55444e-08, global = -2.23699e-08, cumulative = -0.000116387
smoothSolver:  Solving for epsilon, Initial residual = 0.0106035, Final residual = 4.64275e-06, No Iterations 6
smoothSolver:  Solving for k, Initial residual = 0.019659, Final residual = 3.28722e-06, No Iterations 7
ExecutionTime = 1.37 s  ClockTime = 1 s

Courant Number mean: 1.65337 max: 4.96904
deltaT = 0.00306122
Time = 0.247959

PIMPLE: iteration 1
smoothSolver:  Solving for Ux, Initial residual = 0.00572169, Final residual = 4.15335e-06, No Iterations 6
smoothSolver:  Solving for Uy, Initial residual = 0.00606263, Final residual = 8.08837e-06, No Iterations 5
smoothSolver:  Solving for Uz, Initial residual = 0.0299334, Final residual = 4.08324e-06, No Iterations 7
GAMG:  Solving for p, Initial residual = 0.02878, Final residual = 0.000194365, No Iterations 3
time step continuity errors : sum local = 2.78804e-05, global = 1.18589e-06, cumulative = -0.000115201
GAMG:  Solving for p, Initial residual = 0.00626824, Final residual = 5.19562e-07, No Iterations 8
time step continuity errors : sum local = 7.47011e-08, global = 1.1234e-08, cumulative = -0.00011519
smoothSolver:  Solving for epsilon, Initial residual = 0.0105907, Final residual = 4.5715e-06, No Iterations 6
smoothSolver:  Solving for k, Initial residual = 0.0193265, Final residual = 3.27834e-06, No Iterations 7
ExecutionTime = 1.38 s  ClockTime = 1 s

Courant Number mean: 1.65919 max: 4.99928
deltaT = 0.00306122
Time = 0.25102

PIMPLE: iteration 1
smoothSolver:  Solving for Ux, Initial residual = 0.00571453, Final residual = 4.19422e-06, No Iterations 6
smoothSolver:  Solving for Uy, Initial residual = 0.00582029, Final residual = 8.11685e-06, No Iterations 5
smoothSolver:  Solving for Uz, Initial residual = 0.0299081, Final residual = 3.40666e-06, No Iterations 7
GAMG:  Solving for p, Initial residual = 0.0281188, Final residual = 0.000244531, No Iterations 2
time step continuity errors : sum local = 3.52508e-05, global = -4.24437e-07, cumulative = -0.000115614
GAMG:  Solving for p, Initial residual = 0.00564338, Final residual = 5.76292e-07, No Iterations 7
time step continuity errors : sum local = 8.31186e-08, global = -1.05214e-08, cumulative = -0.000115625
smoothSolver:  Solving for epsilon, Initial residual = 0.0105087, Final residual = 4.50776e-06, No Iterations 6
smoothSolver:  Solving for k, Initial residual = 0.0191087, Final residual = 3.28108e-06, No Iterations 7
ExecutionTime = 1.4 s  ClockTime = 1 s

Courant Number mean: 1.6658 max: 4.99953
deltaT = 0.00306122
Time = 0.254082

PIMPLE: iteration 1
smoothSolver:  Solving for Ux, Initial residual = 0.0055809, Final residual = 3.95214e-06, No Iterations 6
smoothSolver:  Solving for Uy, Initial residual = 0.00576762, Final residual = 7.7404e-06, No Iterations 5
smoothSolver:  Solving for Uz, Initial residual = 0.0286487, Final residual = 3.52244e-06, No Iterations 7
GAMG:  Solving for p, Initial residual = 0.0295933, Final residual = 0.000202096, No Iterations 3
time step continuity errors : sum local = 2.92193e-05, global = 1.70726e-06, cumulative = -0.000113918
GAMG:  Solving for p, Initial residual = 0.0060615, Final residual = 4.88801e-07, No Iterations 8
time step continuity errors : sum local = 7.06742e-08, global = 7.28134e-09, cumulative = -0.00011391
smoothSolver:  Solving for epsilon, Initial residual = 0.0106773, Final residual = 4.42034e-06, No Iterations 6
smoothSolver:  Solving for k, Initial residual = 0.018917, Final residual = 3.17485e-06, No Iterations 7
ExecutionTime = 1.41 s  ClockTime = 1 s

Courant Number mean: 1.67288 max: 5.03351
deltaT = 0.00306122
Time = 0.257143

PIMPLE: iteration 1
smoothSolver:  Solving for Ux, Initial residual = 0.00565029, Final residual = 4.09193e-06, No Iterations 6
smoothSolver:  Solving for Uy, Initial residual = 0.00579171, Final residual = 7.92747e-06, No Iterations 5
smoothSolver:  Solving for Uz, Initial residual = 0.0286848, Final residual = 3.10975e-06, No Iterations 7
GAMG:  Solving for p, Initial residual = 0.0289017, Final residual = 0.000247197, No Iterations 2
time step continuity errors : sum local = 3.60061e-05, global = 1.42361e-06, cumulative = -0.000112487
GAMG:  Solving for p, Initial residual = 0.00585641, Final residual = 9.94485e-07, No Iterations 7
time step continuity errors : sum local = 1.45041e-07, global = 4.8839e-08, cumulative = -0.000112438
smoothSolver:  Solving for epsilon, Initial residual = 0.0105803, Final residual = 4.31424e-06, No Iterations 6
smoothSolver:  Solving for k, Initial residual = 0.0187927, Final residual = 3.15529e-06, No Iterations 7
ExecutionTime = 1.43 s  ClockTime = 1 s

Courant Number mean: 1.68317 max: 5.04456
deltaT = 0.00306122
Time = 0.260204

PIMPLE: iteration 1
smoothSolver:  Solving for Ux, Initial residual = 0.0055841, Final residual = 3.98815e-06, No Iterations 6
smoothSolver:  Solving for Uy, Initial residual = 0.00569732, Final residual = 7.33476e-06, No Iterations 5
smoothSolver:  Solving for Uz, Initial residual = 0.0276991, Final residual = 3.21965e-06, No Iterations 7
GAMG:  Solving for p, Initial residual = 0.0297446, Final residual = 0.000219983, No Iterations 3
time step continuity errors : sum local = 3.21481e-05, global = 1.84631e-06, cumulative = -0.000110592
GAMG:  Solving for p, Initial residual = 0.00604673, Final residual = 6.76756e-07, No Iterations 7
time step continuity errors : sum local = 9.88562e-08, global = 1.46149e-08, cumulative = -0.000110577
smoothSolver:  Solving for epsilon, Initial residual = 0.0102414, Final residual = 4.36077e-06, No Iterations 6
smoothSolver:  Solving for k, Initial residual = 0.0185723, Final residual = 3.17475e-06, No Iterations 7
ExecutionTime = 1.46 s  ClockTime = 1 s

Courant Number mean: 1.6949 max: 5.07971
deltaT = 0.00306122
Time = 0.263265

PIMPLE: iteration 1
smoothSolver:  Solving for Ux, Initial residual = 0.00561362, Final residual = 3.85064e-06, No Iterations 6
smoothSolver:  Solving for Uy, Initial residual = 0.00578295, Final residual = 7.75716e-06, No Iterations 5
smoothSolver:  Solving for Uz, Initial residual = 0.0267766, Final residual = 9.36978e-06, No Iterations 6
GAMG:  Solving for p, Initial residual = 0.030375, Final residual = 0.000260655, No Iterations 2
time step continuity errors : sum local = 3.81805e-05, global = 3.90485e-06, cumulative = -0.000106672
GAMG:  Solving for p, Initial residual = 0.0061071, Final residual = 6.53789e-07, No Iterations 8
time step continuity errors : sum local = 9.59731e-08, global = 7.12758e-09, cumulative = -0.000106665
smoothSolver:  Solving for epsilon, Initial residual = 0.0102025, Final residual = 4.26667e-06, No Iterations 6
smoothSolver:  Solving for k, Initial residual = 0.018255, Final residual = 3.08967e-06, No Iterations 7
ExecutionTime = 1.48 s  ClockTime = 1 s

Courant Number mean: 1.70787 max: 5.09381
deltaT = 0.00306122
Time = 0.266327

PIMPLE: iteration 1
smoothSolver:  Solving for Ux, Initial residual = 0.00545891, Final residual = 4.09754e-06, No Iterations 6
smoothSolver:  Solving for Uy, Initial residual = 0.00571765, Final residual = 7.00052e-06, No Iterations 5
smoothSolver:  Solving for Uz, Initial residual = 0.0268677, Final residual = 3.2331e-06, No Iterations 7
GAMG:  Solving for p, Initial residual = 0.0308361, Final residual = 0.000165702, No Iterations 3
time step continuity errors : sum local = 2.43466e-05, global = 1.73116e-06, cumulative = -0.000104934
GAMG:  Solving for p, Initial residual = 0.00622812, Final residual = 4.64666e-07, No Iterations 8
time step continuity errors : sum local = 6.83458e-08, global = 1.53679e-08, cumulative = -0.000104919
smoothSolver:  Solving for epsilon, Initial residual = 0.0102238, Final residual = 4.24054e-06, No Iterations 6
smoothSolver:  Solving for k, Initial residual = 0.0179922, Final residual = 3.04391e-06, No Iterations 7
ExecutionTime = 1.51 s  ClockTime = 1 s

Courant Number mean: 1.72268 max: 5.11807
deltaT = 0.00306122
Time = 0.269388

PIMPLE: iteration 1
smoothSolver:  Solving for Ux, Initial residual = 0.00555373, Final residual = 4.00568e-06, No Iterations 6
smoothSolver:  Solving for Uy, Initial residual = 0.00564682, Final residual = 7.40374e-06, No Iterations 5
smoothSolver:  Solving for Uz, Initial residual = 0.0258555, Final residual = 9.18247e-06, No Iterations 6
GAMG:  Solving for p, Initial residual = 0.0302384, Final residual = 0.000250503, No Iterations 2
time step continuity errors : sum local = 3.68319e-05, global = -1.41813e-06, cumulative = -0.000106337
GAMG:  Solving for p, Initial residual = 0.0060572, Final residual = 9.50822e-07, No Iterations 7
time step continuity errors : sum local = 1.40026e-07, global = 2.7686e-09, cumulative = -0.000106334
smoothSolver:  Solving for epsilon, Initial residual = 0.0101899, Final residual = 4.10216e-06, No Iterations 6
smoothSolver:  Solving for k, Initial residual = 0.0177939, Final residual = 9.71977e-06, No Iterations 6
ExecutionTime = 1.53 s  ClockTime = 1 s

Courant Number mean: 1.73828 max: 5.12432
deltaT = 0.00306122
Time = 0.272449

PIMPLE: iteration 1
smoothSolver:  Solving for Ux, Initial residual = 0.00537494, Final residual = 3.86502e-06, No Iterations 6
smoothSolver:  Solving for Uy, Initial residual = 0.00561824, Final residual = 6.8304e-06, No Iterations 5
smoothSolver:  Solving for Uz, Initial residual = 0.0253805, Final residual = 3.20185e-06, No Iterations 7
GAMG:  Solving for p, Initial residual = 0.0312622, Final residual = 0.0001767, No Iterations 3
time step continuity errors : sum local = 2.59808e-05, global = 1.06344e-06, cumulative = -0.000105271
GAMG:  Solving for p, Initial residual = 0.00630355, Final residual = 9.94181e-07, No Iterations 7
time step continuity errors : sum local = 1.4645e-07, global = 2.62598e-08, cumulative = -0.000105244
smoothSolver:  Solving for epsilon, Initial residual = 0.0102215, Final residual = 4.10525e-06, No Iterations 6
smoothSolver:  Solving for k, Initial residual = 0.0176615, Final residual = 3.07984e-06, No Iterations 7
ExecutionTime = 1.55 s  ClockTime = 1 s

Courant Number mean: 1.75389 max: 5.14188
deltaT = 0.00306122
Time = 0.27551

PIMPLE: iteration 1
smoothSolver:  Solving for Ux, Initial residual = 0.00536039, Final residual = 4.10211e-06, No Iterations 6
smoothSolver:  Solving for Uy, Initial residual = 0.0055149, Final residual = 7.25361e-06, No Iterations 5
smoothSolver:  Solving for Uz, Initial residual = 0.0245025, Final residual = 9.21888e-06, No Iterations 6
GAMG:  Solving for p, Initial residual = 0.0310446, Final residual = 0.000274664, No Iterations 2
time step continuity errors : sum local = 4.05974e-05, global = 1.57741e-06, cumulative = -0.000103667
GAMG:  Solving for p, Initial residual = 0.00617614, Final residual = 6.01033e-07, No Iterations 8
time step continuity errors : sum local = 8.90685e-08, global = 2.28754e-08, cumulative = -0.000103644
smoothSolver:  Solving for epsilon, Initial residual = 0.0101008, Final residual = 4.03581e-06, No Iterations 6
smoothSolver:  Solving for k, Initial residual = 0.0173336, Final residual = 9.81198e-06, No Iterations 6
ExecutionTime = 1.57 s  ClockTime = 1 s

Courant Number mean: 1.76931 max: 5.15569
deltaT = 0.00306122
Time = 0.278571

PIMPLE: iteration 1
smoothSolver:  Solving for Ux, Initial residual = 0.00525911, Final residual = 3.91151e-06, No Iterations 6
smoothSolver:  Solving for Uy, Initial residual = 0.00542163, Final residual = 6.61412e-06, No Iterations 5
smoothSolver:  Solving for Uz, Initial residual = 0.0249552, Final residual = 3.28578e-06, No Iterations 7
GAMG:  Solving for p, Initial residual = 0.0305333, Final residual = 0.000172406, No Iterations 3
time step continuity errors : sum local = 2.55867e-05, global = 1.15831e-06, cumulative = -0.000102486
GAMG:  Solving for p, Initial residual = 0.00636023, Final residual = 7.344e-07, No Iterations 7
time step continuity errors : sum local = 1.09141e-07, global = 4.01605e-08, cumulative = -0.000102445
smoothSolver:  Solving for epsilon, Initial residual = 0.0100492, Final residual = 4.13957e-06, No Iterations 6
smoothSolver:  Solving for k, Initial residual = 0.0172414, Final residual = 9.86196e-06, No Iterations 6
ExecutionTime = 1.59 s  ClockTime = 1 s

Courant Number mean: 1.78497 max: 5.17143
deltaT = 0.00306122
Time = 0.281633

PIMPLE: iteration 1
smoothSolver:  Solving for Ux, Initial residual = 0.00525643, Final residual = 4.12858e-06, No Iterations 6
smoothSolver:  Solving for Uy, Initial residual = 0.00539533, Final residual = 7.04874e-06, No Iterations 5
smoothSolver:  Solving for Uz, Initial residual = 0.0241257, Final residual = 8.47912e-06, No Iterations 6
[...]
time step continuity errors : sum local = 7.16352e-08, global = -1.49397e-09, cumulative = -3.7408e-05
smoothSolver:  Solving for epsilon, Initial residual = 0.000636578, Final residual = 8.19583e-06, No Iterations 2
smoothSolver:  Solving for k, Initial residual = 0.000844414, Final residual = 4.5931e-06, No Iterations 3
ExecutionTime = 13.42 s  ClockTime = 13 s

Courant Number mean: 2.46647 max: 5.03529
deltaT = 0.00185185
Time = 1.46852

PIMPLE: iteration 1
smoothSolver:  Solving for Ux, Initial residual = 0.000962258, Final residual = 4.08227e-06, No Iterations 4
smoothSolver:  Solving for Uy, Initial residual = 0.00156123, Final residual = 6.25392e-06, No Iterations 4
smoothSolver:  Solving for Uz, Initial residual = 0.00697554, Final residual = 3.69213e-06, No Iterations 6
GAMG:  Solving for p, Initial residual = 0.0242828, Final residual = 0.00022939, No Iterations 2
time step continuity errors : sum local = 2.60696e-05, global = -2.68474e-07, cumulative = -3.76764e-05
GAMG:  Solving for p, Initial residual = 0.00427103, Final residual = 4.99144e-07, No Iterations 7
time step continuity errors : sum local = 5.66391e-08, global = 2.15323e-09, cumulative = -3.76743e-05
smoothSolver:  Solving for epsilon, Initial residual = 0.000617294, Final residual = 2.50883e-06, No Iterations 3
smoothSolver:  Solving for k, Initial residual = 0.000879206, Final residual = 4.75236e-06, No Iterations 3
ExecutionTime = 13.44 s  ClockTime = 13 s

Courant Number mean: 2.46651 max: 5.01995
deltaT = 0.00185185
Time = 1.47037

PIMPLE: iteration 1
smoothSolver:  Solving for Ux, Initial residual = 0.000977968, Final residual = 4.47263e-06, No Iterations 4
smoothSolver:  Solving for Uy, Initial residual = 0.00158005, Final residual = 5.67471e-06, No Iterations 4
smoothSolver:  Solving for Uz, Initial residual = 0.00675503, Final residual = 4.50922e-06, No Iterations 6
GAMG:  Solving for p, Initial residual = 0.0243415, Final residual = 0.000210983, No Iterations 2
time step continuity errors : sum local = 2.38664e-05, global = 1.62289e-07, cumulative = -3.7512e-05
GAMG:  Solving for p, Initial residual = 0.00434318, Final residual = 6.39095e-07, No Iterations 7
time step continuity errors : sum local = 7.20666e-08, global = -8.07285e-10, cumulative = -3.75128e-05
smoothSolver:  Solving for epsilon, Initial residual = 0.00067489, Final residual = 7.98685e-06, No Iterations 2
smoothSolver:  Solving for k, Initial residual = 0.000939213, Final residual = 4.92566e-06, No Iterations 3
ExecutionTime = 13.46 s  ClockTime = 13 s

Courant Number mean: 2.46651 max: 5.03528
deltaT = 0.00185185
Time = 1.47222

PIMPLE: iteration 1
smoothSolver:  Solving for Ux, Initial residual = 0.000969967, Final residual = 4.10865e-06, No Iterations 4
smoothSolver:  Solving for Uy, Initial residual = 0.00156617, Final residual = 6.23478e-06, No Iterations 4
smoothSolver:  Solving for Uz, Initial residual = 0.00702223, Final residual = 3.62872e-06, No Iterations 6
GAMG:  Solving for p, Initial residual = 0.024528, Final residual = 0.000228271, No Iterations 2
time step continuity errors : sum local = 2.59446e-05, global = -2.46057e-07, cumulative = -3.77589e-05
GAMG:  Solving for p, Initial residual = 0.00433871, Final residual = 5.22451e-07, No Iterations 7
time step continuity errors : sum local = 5.92844e-08, global = 3.4754e-09, cumulative = -3.77554e-05
smoothSolver:  Solving for epsilon, Initial residual = 0.000619374, Final residual = 9.95885e-06, No Iterations 2
smoothSolver:  Solving for k, Initial residual = 0.00100883, Final residual = 6.06007e-06, No Iterations 3
ExecutionTime = 13.48 s  ClockTime = 13 s

Courant Number mean: 2.46655 max: 5.01977
deltaT = 0.00185185
Time = 1.47407

PIMPLE: iteration 1
smoothSolver:  Solving for Ux, Initial residual = 0.000975994, Final residual = 4.45044e-06, No Iterations 4
smoothSolver:  Solving for Uy, Initial residual = 0.00157623, Final residual = 5.74903e-06, No Iterations 4
smoothSolver:  Solving for Uz, Initial residual = 0.00684684, Final residual = 4.4848e-06, No Iterations 6
GAMG:  Solving for p, Initial residual = 0.0242866, Final residual = 0.000213081, No Iterations 2
time step continuity errors : sum local = 2.41005e-05, global = 1.52974e-07, cumulative = -3.76024e-05
GAMG:  Solving for p, Initial residual = 0.00435983, Final residual = 6.29715e-07, No Iterations 7
time step continuity errors : sum local = 7.1006e-08, global = -8.38275e-10, cumulative = -3.76033e-05
smoothSolver:  Solving for epsilon, Initial residual = 0.000638835, Final residual = 9.21226e-06, No Iterations 2
smoothSolver:  Solving for k, Initial residual = 0.00110741, Final residual = 5.55924e-06, No Iterations 3
ExecutionTime = 13.5 s  ClockTime = 13 s

Courant Number mean: 2.46654 max: 5.03509
deltaT = 0.00185185
Time = 1.47593

PIMPLE: iteration 1
smoothSolver:  Solving for Ux, Initial residual = 0.000962102, Final residual = 4.11127e-06, No Iterations 4
smoothSolver:  Solving for Uy, Initial residual = 0.00156175, Final residual = 6.23907e-06, No Iterations 4
smoothSolver:  Solving for Uz, Initial residual = 0.00695453, Final residual = 3.60326e-06, No Iterations 6
GAMG:  Solving for p, Initial residual = 0.0243514, Final residual = 0.00022757, No Iterations 2
time step continuity errors : sum local = 2.58652e-05, global = -2.65566e-07, cumulative = -3.78688e-05
GAMG:  Solving for p, Initial residual = 0.00428386, Final residual = 5.0012e-07, No Iterations 7
time step continuity errors : sum local = 5.67538e-08, global = 2.2513e-09, cumulative = -3.78666e-05
smoothSolver:  Solving for epsilon, Initial residual = 0.000572976, Final residual = 8.07559e-06, No Iterations 2
smoothSolver:  Solving for k, Initial residual = 0.00101438, Final residual = 5.06413e-06, No Iterations 3
ExecutionTime = 13.51 s  ClockTime = 13 s

Courant Number mean: 2.46658 max: 5.0199
deltaT = 0.00185185
Time = 1.47778

PIMPLE: iteration 1
smoothSolver:  Solving for Ux, Initial residual = 0.000974586, Final residual = 4.42228e-06, No Iterations 4
smoothSolver:  Solving for Uy, Initial residual = 0.00158173, Final residual = 5.64843e-06, No Iterations 4
smoothSolver:  Solving for Uz, Initial residual = 0.00678359, Final residual = 4.46951e-06, No Iterations 6
GAMG:  Solving for p, Initial residual = 0.024383, Final residual = 0.000209466, No Iterations 2
time step continuity errors : sum local = 2.3696e-05, global = 1.58074e-07, cumulative = -3.77085e-05
GAMG:  Solving for p, Initial residual = 0.00433859, Final residual = 6.43389e-07, No Iterations 7
time step continuity errors : sum local = 7.25582e-08, global = -1.03617e-09, cumulative = -3.77095e-05
smoothSolver:  Solving for epsilon, Initial residual = 0.000589548, Final residual = 8.29559e-06, No Iterations 2
smoothSolver:  Solving for k, Initial residual = 0.000947167, Final residual = 4.46419e-06, No Iterations 3
ExecutionTime = 13.53 s  ClockTime = 13 s

Courant Number mean: 2.46657 max: 5.03486
deltaT = 0.00185185
Time = 1.47963

PIMPLE: iteration 1
smoothSolver:  Solving for Ux, Initial residual = 0.000972891, Final residual = 4.11873e-06, No Iterations 4
smoothSolver:  Solving for Uy, Initial residual = 0.0015648, Final residual = 6.26398e-06, No Iterations 4
smoothSolver:  Solving for Uz, Initial residual = 0.00698194, Final residual = 3.60525e-06, No Iterations 6
GAMG:  Solving for p, Initial residual = 0.0245288, Final residual = 0.000228043, No Iterations 2
time step continuity errors : sum local = 2.59164e-05, global = -2.38456e-07, cumulative = -3.7948e-05
GAMG:  Solving for p, Initial residual = 0.00433153, Final residual = 5.14453e-07, No Iterations 7
time step continuity errors : sum local = 5.8371e-08, global = 3.38793e-09, cumulative = -3.79446e-05
smoothSolver:  Solving for epsilon, Initial residual = 0.000564414, Final residual = 9.60225e-06, No Iterations 2
smoothSolver:  Solving for k, Initial residual = 0.000946072, Final residual = 5.03783e-06, No Iterations 3
ExecutionTime = 13.54 s  ClockTime = 13 s

Courant Number mean: 2.4666 max: 5.01898
deltaT = 0.00185185
Time = 1.48148

PIMPLE: iteration 1
smoothSolver:  Solving for Ux, Initial residual = 0.000973147, Final residual = 4.41482e-06, No Iterations 4
smoothSolver:  Solving for Uy, Initial residual = 0.00157494, Final residual = 5.73907e-06, No Iterations 4
smoothSolver:  Solving for Uz, Initial residual = 0.00683763, Final residual = 4.51224e-06, No Iterations 6
GAMG:  Solving for p, Initial residual = 0.0243385, Final residual = 0.000212127, No Iterations 2
time step continuity errors : sum local = 2.39966e-05, global = 1.50752e-07, cumulative = -3.77938e-05
GAMG:  Solving for p, Initial residual = 0.00433794, Final residual = 6.28193e-07, No Iterations 7
time step continuity errors : sum local = 7.0841e-08, global = -1.38701e-09, cumulative = -3.77952e-05
smoothSolver:  Solving for epsilon, Initial residual = 0.00063542, Final residual = 7.58467e-06, No Iterations 2
smoothSolver:  Solving for k, Initial residual = 0.000894852, Final residual = 5.35441e-06, No Iterations 3
ExecutionTime = 13.56 s  ClockTime = 13 s

Courant Number mean: 2.46659 max: 5.03353
deltaT = 0.00185185
Time = 1.48333

PIMPLE: iteration 1
smoothSolver:  Solving for Ux, Initial residual = 0.000962131, Final residual = 4.10649e-06, No Iterations 4
smoothSolver:  Solving for Uy, Initial residual = 0.00155937, Final residual = 6.25237e-06, No Iterations 4
smoothSolver:  Solving for Uz, Initial residual = 0.0069689, Final residual = 3.62347e-06, No Iterations 6
GAMG:  Solving for p, Initial residual = 0.0243363, Final residual = 0.00022788, No Iterations 2
time step continuity errors : sum local = 2.58978e-05, global = -2.62638e-07, cumulative = -3.80579e-05
GAMG:  Solving for p, Initial residual = 0.00427041, Final residual = 4.96966e-07, No Iterations 7
time step continuity errors : sum local = 5.63922e-08, global = 2.18332e-09, cumulative = -3.80557e-05
smoothSolver:  Solving for epsilon, Initial residual = 0.000591317, Final residual = 2.43154e-06, No Iterations 3
smoothSolver:  Solving for k, Initial residual = 0.000919243, Final residual = 5.45053e-06, No Iterations 3
ExecutionTime = 13.58 s  ClockTime = 13 s

Courant Number mean: 2.46663 max: 5.01757
deltaT = 0.00185185
Time = 1.48519

PIMPLE: iteration 1
smoothSolver:  Solving for Ux, Initial residual = 0.000973048, Final residual = 4.43125e-06, No Iterations 4
smoothSolver:  Solving for Uy, Initial residual = 0.0015793, Final residual = 5.65e-06, No Iterations 4
smoothSolver:  Solving for Uz, Initial residual = 0.00673272, Final residual = 4.56522e-06, No Iterations 6
GAMG:  Solving for p, Initial residual = 0.0244018, Final residual = 0.000210052, No Iterations 2
time step continuity errors : sum local = 2.37645e-05, global = 1.59142e-07, cumulative = -3.78965e-05
GAMG:  Solving for p, Initial residual = 0.00433737, Final residual = 6.33012e-07, No Iterations 7
time step continuity errors : sum local = 7.13861e-08, global = -8.95125e-10, cumulative = -3.78974e-05
smoothSolver:  Solving for epsilon, Initial residual = 0.000619709, Final residual = 7.65796e-06, No Iterations 2
smoothSolver:  Solving for k, Initial residual = 0.000904859, Final residual = 5.3712e-06, No Iterations 3
ExecutionTime = 13.59 s  ClockTime = 13 s

Courant Number mean: 2.46662 max: 5.03189
deltaT = 0.00185185
Time = 1.48704

PIMPLE: iteration 1
smoothSolver:  Solving for Ux, Initial residual = 0.000965037, Final residual = 4.10217e-06, No Iterations 4
smoothSolver:  Solving for Uy, Initial residual = 0.0015631, Final residual = 6.24423e-06, No Iterations 4
smoothSolver:  Solving for Uz, Initial residual = 0.0069918, Final residual = 3.56813e-06, No Iterations 6
GAMG:  Solving for p, Initial residual = 0.0245959, Final residual = 0.000228024, No Iterations 2
time step continuity errors : sum local = 2.59145e-05, global = -2.43213e-07, cumulative = -3.81407e-05
GAMG:  Solving for p, Initial residual = 0.00432781, Final residual = 5.21485e-07, No Iterations 7
time step continuity errors : sum local = 5.91718e-08, global = 3.42724e-09, cumulative = -3.81372e-05
smoothSolver:  Solving for epsilon, Initial residual = 0.00057638, Final residual = 9.99034e-06, No Iterations 2
smoothSolver:  Solving for k, Initial residual = 0.000891773, Final residual = 5.96616e-06, No Iterations 3
ExecutionTime = 13.6 s  ClockTime = 13 s

Courant Number mean: 2.46665 max: 5.01606
deltaT = 0.00185185
Time = 1.48889

PIMPLE: iteration 1
smoothSolver:  Solving for Ux, Initial residual = 0.000969664, Final residual = 4.4112e-06, No Iterations 4
smoothSolver:  Solving for Uy, Initial residual = 0.0015716, Final residual = 5.75377e-06, No Iterations 4
smoothSolver:  Solving for Uz, Initial residual = 0.00681013, Final residual = 4.53815e-06, No Iterations 6
GAMG:  Solving for p, Initial residual = 0.0243071, Final residual = 0.000211802, No Iterations 2
time step continuity errors : sum local = 2.39588e-05, global = 1.52367e-07, cumulative = -3.79849e-05
GAMG:  Solving for p, Initial residual = 0.00434437, Final residual = 6.24139e-07, No Iterations 7
time step continuity errors : sum local = 7.03798e-08, global = -9.66796e-10, cumulative = -3.79858e-05
smoothSolver:  Solving for epsilon, Initial residual = 0.0005969, Final residual = 9.29443e-06, No Iterations 2
smoothSolver:  Solving for k, Initial residual = 0.000966262, Final residual = 5.55968e-06, No Iterations 3
ExecutionTime = 13.62 s  ClockTime = 13 s

Courant Number mean: 2.46664 max: 5.03063
deltaT = 0.00185185
Time = 1.49074

PIMPLE: iteration 1
smoothSolver:  Solving for Ux, Initial residual = 0.000954983, Final residual = 4.10432e-06, No Iterations 4
smoothSolver:  Solving for Uy, Initial residual = 0.00155645, Final residual = 6.24291e-06, No Iterations 4
smoothSolver:  Solving for Uz, Initial residual = 0.00694965, Final residual = 3.5811e-06, No Iterations 6
GAMG:  Solving for p, Initial residual = 0.0243617, Final residual = 0.000226233, No Iterations 2
time step continuity errors : sum local = 2.57097e-05, global = -2.64496e-07, cumulative = -3.82503e-05
GAMG:  Solving for p, Initial residual = 0.00426402, Final residual = 4.93767e-07, No Iterations 7
time step continuity errors : sum local = 5.60271e-08, global = 2.0673e-09, cumulative = -3.82483e-05
smoothSolver:  Solving for epsilon, Initial residual = 0.000552673, Final residual = 9.21923e-06, No Iterations 2
smoothSolver:  Solving for k, Initial residual = 0.000883755, Final residual = 5.00333e-06, No Iterations 3
ExecutionTime = 13.63 s  ClockTime = 13 s

Courant Number mean: 2.46667 max: 5.01627
deltaT = 0.00185185
Time = 1.49259

PIMPLE: iteration 1
smoothSolver:  Solving for Ux, Initial residual = 0.000969466, Final residual = 4.40487e-06, No Iterations 4
smoothSolver:  Solving for Uy, Initial residual = 0.00157571, Final residual = 5.66397e-06, No Iterations 4
smoothSolver:  Solving for Uz, Initial residual = 0.00675369, Final residual = 4.54127e-06, No Iterations 6
GAMG:  Solving for p, Initial residual = 0.0243956, Final residual = 0.000208632, No Iterations 2
time step continuity errors : sum local = 2.36025e-05, global = 1.62456e-07, cumulative = -3.80858e-05
GAMG:  Solving for p, Initial residual = 0.00433565, Final residual = 6.37144e-07, No Iterations 7
time step continuity errors : sum local = 7.18487e-08, global = -7.69182e-10, cumulative = -3.80866e-05
smoothSolver:  Solving for epsilon, Initial residual = 0.000578624, Final residual = 9.90621e-06, No Iterations 2
smoothSolver:  Solving for k, Initial residual = 0.00087395, Final residual = 5.18008e-06, No Iterations 3
ExecutionTime = 13.66 s  ClockTime = 13 s

Courant Number mean: 2.46666 max: 5.03115
deltaT = 0.00185185
Time = 1.49444

PIMPLE: iteration 1
smoothSolver:  Solving for Ux, Initial residual = 0.000962858, Final residual = 4.10229e-06, No Iterations 4
smoothSolver:  Solving for Uy, Initial residual = 0.00155904, Final residual = 6.23051e-06, No Iterations 4
smoothSolver:  Solving for Uz, Initial residual = 0.00698609, Final residual = 3.58757e-06, No Iterations 6
GAMG:  Solving for p, Initial residual = 0.0245816, Final residual = 0.000227707, No Iterations 2
time step continuity errors : sum local = 2.58752e-05, global = -2.41759e-07, cumulative = -3.83283e-05
GAMG:  Solving for p, Initial residual = 0.00432334, Final residual = 5.25324e-07, No Iterations 7
time step continuity errors : sum local = 5.96002e-08, global = 3.43955e-09, cumulative = -3.83249e-05
smoothSolver:  Solving for epsilon, Initial residual = 0.000550395, Final residual = 9.61583e-06, No Iterations 2
smoothSolver:  Solving for k, Initial residual = 0.000913337, Final residual = 4.52084e-06, No Iterations 3
ExecutionTime = 13.67 s  ClockTime = 13 s

Courant Number mean: 2.46669 max: 5.01743
deltaT = 0.00185185
Time = 1.4963

PIMPLE: iteration 1
smoothSolver:  Solving for Ux, Initial residual = 0.000969818, Final residual = 4.40335e-06, No Iterations 4
smoothSolver:  Solving for Uy, Initial residual = 0.00157353, Final residual = 5.75603e-06, No Iterations 4
smoothSolver:  Solving for Uz, Initial residual = 0.0068588, Final residual = 4.57482e-06, No Iterations 6
GAMG:  Solving for p, Initial residual = 0.0243174, Final residual = 0.000211756, No Iterations 2
time step continuity errors : sum local = 2.3954e-05, global = 1.51007e-07, cumulative = -3.81739e-05
GAMG:  Solving for p, Initial residual = 0.00434144, Final residual = 6.4149e-07, No Iterations 7
time step continuity errors : sum local = 7.23361e-08, global = -1.16504e-09, cumulative = -3.8175e-05
smoothSolver:  Solving for epsilon, Initial residual = 0.000575798, Final residual = 7.77459e-06, No Iterations 2
smoothSolver:  Solving for k, Initial residual = 0.000854644, Final residual = 5.05506e-06, No Iterations 3
ExecutionTime = 13.69 s  ClockTime = 13 s

Courant Number mean: 2.46667 max: 5.0323
deltaT = 0.00185185
Time = 1.49815

PIMPLE: iteration 1
smoothSolver:  Solving for Ux, Initial residual = 0.000956938, Final residual = 4.12227e-06, No Iterations 4
smoothSolver:  Solving for Uy, Initial residual = 0.00155489, Final residual = 6.26765e-06, No Iterations 4
smoothSolver:  Solving for Uz, Initial residual = 0.00694799, Final residual = 3.63707e-06, No Iterations 6
GAMG:  Solving for p, Initial residual = 0.0243678, Final residual = 0.000226546, No Iterations 2
time step continuity errors : sum local = 2.57422e-05, global = -2.67779e-07, cumulative = -3.84428e-05
GAMG:  Solving for p, Initial residual = 0.00425944, Final residual = 4.8169e-07, No Iterations 7
time step continuity errors : sum local = 5.4651e-08, global = 1.90718e-09, cumulative = -3.84409e-05
smoothSolver:  Solving for epsilon, Initial residual = 0.00052792, Final residual = 9.37612e-06, No Iterations 2
smoothSolver:  Solving for k, Initial residual = 0.000817416, Final residual = 4.76273e-06, No Iterations 3
ExecutionTime = 13.7 s  ClockTime = 13 s

Courant Number mean: 2.46671 max: 5.01915
deltaT = 0.00185185
Time = 1.5

PIMPLE: iteration 1
smoothSolver:  Solving for Ux, Initial residual = 0.000971085, Final residual = 4.41983e-06, No Iterations 4
smoothSolver:  Solving for Uy, Initial residual = 0.00157729, Final residual = 5.64842e-06, No Iterations 4
smoothSolver:  Solving for Uz, Initial residual = 0.00677992, Final residual = 4.54447e-06, No Iterations 6
GAMG:  Solving for p, Initial residual = 0.0243176, Final residual = 0.000209077, No Iterations 2
time step continuity errors : sum local = 2.36508e-05, global = 1.5721e-07, cumulative = -3.82837e-05
GAMG:  Solving for p, Initial residual = 0.00433267, Final residual = 6.55751e-07, No Iterations 7
time step continuity errors : sum local = 7.39436e-08, global = -1.1205e-09, cumulative = -3.82848e-05
smoothSolver:  Solving for epsilon, Initial residual = 0.00055966, Final residual = 6.64677e-06, No Iterations 2
smoothSolver:  Solving for k, Initial residual = 0.000864423, Final residual = 4.80758e-06, No Iterations 3
ExecutionTime = 13.73 s  ClockTime = 13 s

End

